<routes>
    <vType id="agenttype" accel="4.0" emergencyDecel="7.0" sigma="0" length="5" maxspeed="30" color="red"/>

    <vType id="npctype" accel="0.8" sigma="0.5" length="5"/>

    <vehicle id="ego" type="agenttype" depart="0">
        <route edges="E7 -E0"/>
    </vehicle>

    <vehicle id="npc0" type="npctype" depart="9">
        <route edges="RE3 RE-14"/>
    </vehicle>

    <vehicle id="npc1" type="npctype" depart="11">
        <route edges="RE8 RE-15"/>
    </vehicle>

    <vehicle id="npc2" type="npctype" depart="13">
        <route edges="E1 E-4"/>
    </vehicle>

    <vehicle id="npc3" type="npctype" depart="14">
        <route edges="RE2 RE-11"/>
    </vehicle>

    <vehicle id="npc4" type="npctype" depart="15">
        <route edges="RE13 RE-9"/>
    </vehicle>

</routes>
