<routes>
    <vType id="agenttype" accel="4.0" emergencyDecel="7.0" sigma="0" length="5" maxspeed="30" color="red"/>

    <vType id="npctype" accel="0.8" sigma="0.5" length="5"/>

    <vehicle id="ego" type="agenttype" depart="0">
        <route edges="E7 RE-14"/>
    </vehicle>

    <vehicle id="npc0" type="npctype" depart="4">
        <route edges="RE7 RE-5"/>
    </vehicle>

    <vehicle id="npc1" type="npctype" depart="6">
        <route edges="E13 E-13"/>
    </vehicle>

    <vehicle id="npc2" type="npctype" depart="7">
        <route edges="RE10 RE-15"/>
    </vehicle>

    <vehicle id="npc3" type="npctype" depart="11">
        <route edges="RE5 RE-15"/>
    </vehicle>

    <vehicle id="npc4" type="npctype" depart="13">
        <route edges="RE11 RE-15"/>
    </vehicle>

</routes>
