<routes>
    <vType id="agenttype" accel="4.0" emergencyDecel="7.0" sigma="0" length="5" maxspeed="30" color="red"/>

    <vType id="npctype" accel="0.8" sigma="0.5" length="5"/>

    <vehicle id="ego" type="agenttype" depart="0">
        <route edges="E4_ E-1"/>
        <param key="has.ssm.device" value="true"/>
        <param key="device.ssm.measures" value="DRAC"/>
    </vehicle>

    <vehicle id="npc0" type="npctype" depart="1">
        <route edges="RE8 E-13"/>
        <param key="has.ssm.device" value="true"/>
        <param key="device.ssm.measures" value="DRAC"/>
    </vehicle>

    <vehicle id="npc1" type="npctype" depart="2">
        <route edges="RE1 RE-14"/>
        <param key="has.ssm.device" value="true"/>
        <param key="device.ssm.measures" value="DRAC"/>
    </vehicle>

    <vehicle id="npc2" type="npctype" depart="5">
        <route edges="RE13 RE-9"/>
        <param key="has.ssm.device" value="true"/>
        <param key="device.ssm.measures" value="DRAC"/>
    </vehicle>

    <vehicle id="npc3" type="npctype" depart="6">
        <route edges="RE12 E-13"/>
        <param key="has.ssm.device" value="true"/>
        <param key="device.ssm.measures" value="DRAC"/>
    </vehicle>

    <vehicle id="npc4" type="npctype" depart="7">
        <route edges="RE2 E-1"/>
        <param key="has.ssm.device" value="true"/>
        <param key="device.ssm.measures" value="DRAC"/>
    </vehicle>

    <vehicle id="npc5" type="npctype" depart="8">
        <route edges="E7 E-1"/>
        <param key="has.ssm.device" value="true"/>
        <param key="device.ssm.measures" value="DRAC"/>
    </vehicle>

    <vehicle id="npc6" type="npctype" depart="10">
        <route edges="RE7 RE-15"/>
        <param key="has.ssm.device" value="true"/>
        <param key="device.ssm.measures" value="DRAC"/>
    </vehicle>

    <vehicle id="npc7" type="npctype" depart="11">
        <route edges="E10 RE-14"/>
        <param key="has.ssm.device" value="true"/>
        <param key="device.ssm.measures" value="DRAC"/>
    </vehicle>

    <vehicle id="npc8" type="npctype" depart="12">
        <route edges="RE1 RE-6"/>
        <param key="has.ssm.device" value="true"/>
        <param key="device.ssm.measures" value="DRAC"/>
    </vehicle>

    <vehicle id="npc9" type="npctype" depart="13">
        <route edges="RE3 RE-12"/>
        <param key="has.ssm.device" value="true"/>
        <param key="device.ssm.measures" value="DRAC"/>
    </vehicle>

    <vehicle id="npc10" type="npctype" depart="14">
        <route edges="RE15 RE-5"/>
        <param key="has.ssm.device" value="true"/>
        <param key="device.ssm.measures" value="DRAC"/>
    </vehicle>

    <vehicle id="npc11" type="npctype" depart="15">
        <route edges="RE12 RE-8"/>
        <param key="has.ssm.device" value="true"/>
        <param key="device.ssm.measures" value="DRAC"/>
    </vehicle>

    <vehicle id="npc12" type="npctype" depart="16">
        <route edges="RE12 RE-5"/>
        <param key="has.ssm.device" value="true"/>
        <param key="device.ssm.measures" value="DRAC"/>
    </vehicle>

    <vehicle id="npc13" type="npctype" depart="17">
        <route edges="E13 E-13"/>
        <param key="has.ssm.device" value="true"/>
        <param key="device.ssm.measures" value="DRAC"/>
    </vehicle>

    <vehicle id="npc14" type="npctype" depart="18">
        <route edges="RE6 RE-15"/>
        <param key="has.ssm.device" value="true"/>
        <param key="device.ssm.measures" value="DRAC"/>
    </vehicle>

    <vehicle id="npc15" type="npctype" depart="19">
        <route edges="RE13 RE-3"/>
        <param key="has.ssm.device" value="true"/>
        <param key="device.ssm.measures" value="DRAC"/>
    </vehicle>

    <vehicle id="npc16" type="npctype" depart="20">
        <route edges="RE5 RE-8"/>
        <param key="has.ssm.device" value="true"/>
        <param key="device.ssm.measures" value="DRAC"/>
    </vehicle>

    <vehicle id="npc17" type="npctype" depart="21">
        <route edges="E13 E-4"/>
        <param key="has.ssm.device" value="true"/>
        <param key="device.ssm.measures" value="DRAC"/>
    </vehicle>

    <vehicle id="npc18" type="npctype" depart="22">
        <route edges="RE11 RE-6"/>
        <param key="has.ssm.device" value="true"/>
        <param key="device.ssm.measures" value="DRAC"/>
    </vehicle>

    <vehicle id="npc19" type="npctype" depart="23">
        <route edges="E10 RE-9"/>
        <param key="has.ssm.device" value="true"/>
        <param key="device.ssm.measures" value="DRAC"/>
    </vehicle>

</routes>
