<routes>
    <vType id="agenttype" accel="4.0" emergencyDecel="7.0" sigma="0" length="5" maxspeed="30" color="red"/>

    <vType id="npctype" accel="0.8" sigma="0.5" length="5"/>

    <vehicle id="ego" type="agenttype" depart="0">
        <route edges="E1 E-13"/>
    </vehicle>

    <vehicle id="npc0" type="npctype" depart="0">
        <route edges="RE14 RE-3"/>
    </vehicle>

    <vehicle id="npc1" type="npctype" depart="1">
        <route edges="E13 E-13"/>
    </vehicle>

    <vehicle id="npc2" type="npctype" depart="3">
        <route edges="RE2 RE-6"/>
    </vehicle>

    <vehicle id="npc3" type="npctype" depart="4">
        <route edges="RE3 RE-6"/>
    </vehicle>

    <vehicle id="npc4" type="npctype" depart="5">
        <route edges="RE3 RE-9"/>
    </vehicle>

    <vehicle id="npc5" type="npctype" depart="6">
        <route edges="RE3 RE-5"/>
    </vehicle>

    <vehicle id="npc6" type="npctype" depart="11">
        <route edges="RE6 RE-15"/>
    </vehicle>

    <vehicle id="npc7" type="npctype" depart="13">
        <route edges="RE8 E-7"/>
    </vehicle>

    <vehicle id="npc8" type="npctype" depart="14">
        <route edges="RE5 E-4"/>
    </vehicle>

</routes>
