<routes>
    <vType id="agenttype" accel="4.0" emergencyDecel="7.0" sigma="0" length="5" maxspeed="30" color="red"/>

    <vType id="npctype" accel="0.8" sigma="0.5" length="5"/>

    <vehicle id="ego" type="agenttype" depart="0">
        <route edges="E10 E-1"/>
    </vehicle>

    <vehicle id="npc0" type="npctype" depart="0">
        <route edges="RE14 E-7"/>
    </vehicle>

    <vehicle id="npc1" type="npctype" depart="1">
        <route edges="RE3 RE-9"/>
    </vehicle>

    <vehicle id="npc2" type="npctype" depart="2">
        <route edges="RE10 E-1"/>
    </vehicle>

    <vehicle id="npc3" type="npctype" depart="3">
        <route edges="RE8 RE-12"/>
    </vehicle>

    <vehicle id="npc4" type="npctype" depart="6">
        <route edges="RE7 E-1"/>
    </vehicle>

    <vehicle id="npc5" type="npctype" depart="7">
        <route edges="RE11 E-10"/>
    </vehicle>

    <vehicle id="npc6" type="npctype" depart="8">
        <route edges="E1 RE-9"/>
    </vehicle>

    <vehicle id="npc7" type="npctype" depart="10">
        <route edges="E10 RE-5"/>
    </vehicle>

    <vehicle id="npc8" type="npctype" depart="11">
        <route edges="RE8 RE-11"/>
    </vehicle>

    <vehicle id="npc9" type="npctype" depart="13">
        <route edges="E13 RE-14"/>
    </vehicle>

    <vehicle id="npc10" type="npctype" depart="15">
        <route edges="RE11 E-13"/>
    </vehicle>

</routes>
