<?xml version="1.0" encoding="UTF-8"?>

<!-- generated on 2022-08-02 18:17:30 by Eclipse SUMO netedit Version v1_14_1+0076-c68646acd3a
<configuration xmlns:xsi="http://www.w3.org/2001/XMLSchema-instance" xsi:noNamespaceSchemaLocation="http://sumo.dlr.de/xsd/netconvertConfiguration.xsd">

    <input>
        <sumo-net-file value="magic.net.xml"/>
    </input>

    <output>
        <output-file value="magic.net.xml"/>
    </output>

    <processing>
        <geometry.min-radius.fix.railways value="false"/>
        <geometry.max-grade.fix value="false"/>
        <offset.disable-normalization value="true"/>
        <lefthand value="false"/>
    </processing>

    <junctions>
        <no-turnarounds value="true"/>
        <junctions.corner-detail value="5"/>
        <junctions.limit-turn-speed value="5.5"/>
        <rectangular-lane-cut value="false"/>
    </junctions>

    <pedestrian>
        <walkingareas value="false"/>
    </pedestrian>

</configuration>
-->

<net version="1.9" junctionCornerDetail="5" limitTurnSpeed="5.50" xmlns:xsi="http://www.w3.org/2001/XMLSchema-instance" xsi:noNamespaceSchemaLocation="http://sumo.dlr.de/xsd/net_file.xsd">

    <location netOffset="0.00,0.00" convBoundary="-164.55,-301.05,147.18,-62.23" origBoundary="-10000000000.00,-10000000000.00,10000000000.00,10000000000.00" projParameter="!"/>

    <edge id=":R1_0" function="internal">
        <lane id=":R1_0_0" index="0" speed="8.02" length="7.34" shape="-73.70,-109.25 -76.01,-110.09 -77.97,-110.52 -79.55,-110.52 -80.78,-110.11"/>
    </edge>
    <edge id=":R1_1" function="internal">
        <lane id=":R1_1_0" index="0" speed="8.63" length="12.86" shape="-73.70,-109.25 -76.64,-110.97 -78.63,-113.25 -79.68,-116.09 -79.78,-119.49"/>
    </edge>
    <edge id=":R1_2" function="internal">
        <lane id=":R1_2_0" index="0" speed="8.02" length="7.34" shape="-82.42,-112.86 -81.47,-113.74 -80.71,-115.14 -80.15,-117.06 -79.78,-119.49"/>
    </edge>
    <edge id=":R10_0" function="internal">
        <lane id=":R10_0_0" index="0" speed="8.02" length="7.34" shape="37.77,-175.70 36.77,-174.88 35.93,-173.53 35.25,-171.65 34.73,-169.25"/>
    </edge>
    <edge id=":R10_1" function="internal">
        <lane id=":R10_1_0" index="0" speed="8.02" length="7.33" shape="29.30,-179.84 31.56,-178.86 33.48,-178.32 35.06,-178.21 36.31,-178.55"/>
    </edge>
    <edge id=":R10_2" function="internal">
        <lane id=":R10_2_0" index="0" speed="8.62" length="12.86" shape="29.30,-179.84 32.12,-177.95 33.97,-175.55 34.84,-172.65 34.73,-169.25"/>
    </edge>
    <edge id=":R11_0" function="internal">
        <lane id=":R11_0_0" index="0" speed="11.41" length="11.21" shape="33.05,-162.76 31.47,-160.09 30.73,-157.88 30.68,-155.46 31.16,-152.14"/>
        <lane id=":R11_0_1" index="1" speed="12.14" length="12.76" shape="33.05,-162.76 30.96,-160.11 29.10,-157.90 27.96,-155.34 27.99,-151.65"/>
    </edge>
    <edge id=":R11_2" function="internal">
        <lane id=":R11_2_0" index="0" speed="10.48" length="21.06" shape="33.05,-162.76 29.42,-158.65 25.14,-156.38 20.20,-155.93 14.61,-157.32"/>
    </edge>
    <edge id=":R11_3" function="internal">
        <lane id=":R11_3_0" index="0" speed="7.32" length="9.34" shape="19.71,-150.36 19.58,-152.59 18.69,-154.49 17.03,-156.07 14.61,-157.32"/>
    </edge>
    <edge id=":R12_0" function="internal">
        <lane id=":R12_0_0" index="0" speed="13.89" length="14.46" shape="10.17,-188.33 13.81,-185.56 16.77,-183.72 19.62,-182.66 22.95,-182.25"/>
    </edge>
    <edge id=":R12_1" function="internal">
        <lane id=":R12_1_0" index="0" speed="7.41" length="9.69" shape="7.85,-170.34 8.22,-173.06 7.82,-175.35 6.67,-177.24 4.76,-178.71"/>
        <lane id=":R12_1_1" index="1" speed="8.19" length="12.00" shape="7.85,-170.34 8.62,-174.43 8.62,-177.66 7.86,-180.01 6.33,-181.50"/>
    </edge>
    <edge id=":R12_3" function="internal">
        <lane id=":R12_3_0" index="0" speed="10.49" length="21.04" shape="7.85,-170.34 9.97,-175.71 13.19,-179.49 17.52,-181.67 22.95,-182.25"/>
    </edge>
    <edge id=":R13_0" function="internal">
        <lane id=":R13_0_0" index="0" speed="8.01" length="7.34" shape="37.05,-115.09 35.79,-115.40 34.20,-115.26 32.30,-114.68 30.07,-113.64"/>
    </edge>
    <edge id=":R13_1" function="internal">
        <lane id=":R13_1_0" index="0" speed="8.02" length="7.34" shape="35.26,-124.35 35.83,-121.96 36.55,-120.10 37.42,-118.77 38.44,-117.97"/>
    </edge>
    <edge id=":R13_2" function="internal">
        <lane id=":R13_2_0" index="0" speed="8.63" length="12.84" shape="35.26,-124.35 35.44,-120.96 34.64,-118.04 32.85,-115.60 30.07,-113.64"/>
    </edge>
    <edge id=":R14_0" function="internal">
        <lane id=":R14_0_0" index="0" speed="10.53" length="9.63" shape="23.91,-111.08 21.08,-110.86 19.12,-110.41 17.44,-109.37 15.44,-107.41"/>
        <lane id=":R14_0_1" index="1" speed="11.46" length="11.49" shape="23.91,-111.08 20.64,-111.28 18.02,-111.72 15.65,-111.46 13.09,-109.59"/>
    </edge>
    <edge id=":R14_2" function="internal">
        <lane id=":R14_2_0" index="0" speed="9.75" length="26.03" shape="23.91,-111.08 15.90,-111.56 10.65,-114.16 8.18,-118.87 8.46,-125.69"/>
    </edge>
    <edge id=":R14_3" function="internal">
        <lane id=":R14_3_0" index="0" speed="7.07" length="9.09" shape="3.33,-119.00 5.04,-119.42 6.47,-120.68 7.61,-122.77 8.46,-125.69"/>
    </edge>
    <edge id=":R15_0" function="internal">
        <lane id=":R15_0_0" index="0" speed="10.07" length="9.49" shape="31.28,-139.73 31.08,-137.46 31.37,-135.21 32.17,-132.98 33.46,-130.75"/>
    </edge>
    <edge id=":R15_1" function="internal">
        <lane id=":R15_1_0" index="0" speed="7.31" length="9.69" shape="14.67,-135.73 17.07,-137.07 18.65,-138.78 19.41,-140.84 19.36,-143.26"/>
        <lane id=":R15_1_1" index="1" speed="8.09" length="12.07" shape="14.67,-135.73 18.40,-137.58 20.95,-139.55 22.32,-141.63 22.51,-143.82"/>
    </edge>
    <edge id=":R15_3" function="internal">
        <lane id=":R15_3_0" index="0" speed="10.53" length="21.27" shape="14.67,-135.73 20.31,-137.28 25.32,-136.96 29.70,-134.79 33.46,-130.75"/>
    </edge>
    <edge id=":R2_0" function="internal">
        <lane id=":R2_0_0" index="0" speed="6.99" length="9.25" shape="-65.09,-139.16 -65.04,-136.94 -64.17,-135.09 -62.49,-133.60 -60.00,-132.48"/>
    </edge>
    <edge id=":R2_1" function="internal">
        <lane id=":R2_1_0" index="0" speed="12.26" length="11.66" shape="-78.48,-126.11 -77.05,-128.91 -76.42,-131.25 -76.44,-133.82 -76.98,-137.30"/>
        <lane id=":R2_1_1" index="1" speed="12.96" length="13.07" shape="-78.48,-126.11 -76.54,-128.90 -74.79,-131.26 -73.73,-133.97 -73.82,-137.80"/>
    </edge>
    <edge id=":R2_3" function="internal">
        <lane id=":R2_3_0" index="0" speed="10.56" length="21.39" shape="-78.48,-126.11 -75.08,-130.41 -70.86,-132.90 -65.83,-133.59 -60.00,-132.48"/>
    </edge>
    <edge id=":R3_0" function="internal">
        <lane id=":R3_0_0" index="0" speed="10.56" length="9.63" shape="-58.59,-104.28 -60.76,-106.06 -62.53,-106.95 -64.52,-107.24 -67.35,-107.23"/>
    </edge>
    <edge id=":R3_1" function="internal">
        <lane id=":R3_1_0" index="0" speed="6.98" length="9.19" shape="-53.29,-123.42 -52.18,-120.59 -50.83,-118.64 -49.23,-117.57 -47.39,-117.38"/>
        <lane id=":R3_1_1" index="1" speed="7.83" length="11.80" shape="-53.29,-123.42 -51.80,-119.23 -50.26,-116.30 -48.65,-114.62 -46.99,-114.20"/>
    </edge>
    <edge id=":R3_3" function="internal">
        <lane id=":R3_3_0" index="0" speed="9.79" length="26.30" shape="-53.29,-123.42 -52.38,-116.49 -54.42,-111.48 -59.41,-108.39 -67.35,-107.23"/>
    </edge>
    <edge id=":R4_0" function="internal">
        <lane id=":R4_0_0" index="0" speed="8.02" length="7.33" shape="-79.99,-183.35 -78.78,-182.91 -77.19,-182.88 -75.23,-183.26 -72.90,-184.06"/>
    </edge>
    <edge id=":R4_1" function="internal">
        <lane id=":R4_1_0" index="0" speed="8.03" length="7.33" shape="-79.20,-173.95 -79.51,-176.39 -80.03,-178.32 -80.76,-179.73 -81.69,-180.63"/>
    </edge>
    <edge id=":R4_2" function="internal">
        <lane id=":R4_2_0" index="0" speed="8.62" length="12.86" shape="-79.20,-173.95 -79.03,-177.35 -77.92,-180.17 -75.88,-182.40 -72.90,-184.06"/>
    </edge>
    <edge id=":R5_0" function="internal">
        <lane id=":R5_0_0" index="0" speed="7.39" length="9.49" shape="-48.83,-180.94 -50.74,-179.65 -51.96,-177.88 -52.49,-175.64 -52.34,-172.91"/>
    </edge>
    <edge id=":R5_1" function="internal">
        <lane id=":R5_1_0" index="0" speed="13.54" length="12.49" shape="-66.40,-185.94 -63.20,-185.99 -60.66,-186.56 -58.11,-187.83 -54.89,-189.93"/>
        <lane id=":R5_1_1" index="1" speed="13.89" length="13.79" shape="-66.40,-185.94 -62.99,-185.52 -59.95,-185.11 -56.81,-185.45 -53.11,-187.28"/>
    </edge>
    <edge id=":R5_3" function="internal">
        <lane id=":R5_3_0" index="0" speed="10.47" length="20.98" shape="-66.40,-185.94 -61.03,-184.92 -56.90,-182.41 -54.00,-178.41 -52.34,-172.91"/>
    </edge>
    <edge id=":R6_0" function="internal">
        <lane id=":R6_0_0" index="0" speed="7.12" length="9.61" shape="-59.69,-160.53 -62.21,-159.44 -63.91,-157.91 -64.80,-155.94 -64.88,-153.52"/>
        <lane id=":R6_0_1" index="1" speed="7.88" length="12.01" shape="-59.69,-160.53 -63.57,-159.07 -66.26,-157.37 -67.76,-155.42 -68.07,-153.22"/>
    </edge>
    <edge id=":R6_2" function="internal">
        <lane id=":R6_2_0" index="0" speed="10.56" length="21.39" shape="-59.69,-160.53 -65.56,-159.55 -70.57,-160.35 -74.73,-162.93 -78.03,-167.30"/>
    </edge>
    <edge id=":R6_3" function="internal">
        <lane id=":R6_3_0" index="0" speed="13.89" length="15.36" shape="-77.62,-152.32 -76.69,-157.14 -76.35,-160.91 -76.74,-164.14 -78.03,-167.30"/>
    </edge>
    <edge id=":R7_0" function="internal">
        <lane id=":R7_0_0" index="0" speed="8.02" length="7.34" shape="-21.56,-213.93 -21.29,-212.66 -20.48,-211.30 -19.12,-209.84 -17.22,-208.28"/>
    </edge>
    <edge id=":R7_1" function="internal">
        <lane id=":R7_1_0" index="0" speed="8.01" length="7.33" shape="-29.12,-208.30 -27.22,-209.85 -25.85,-211.31 -25.03,-212.67 -24.76,-213.93"/>
    </edge>
    <edge id=":R7_2" function="internal">
        <lane id=":R7_2_0" index="0" speed="8.63" length="12.85" shape="-29.12,-208.30 -26.14,-209.94 -23.17,-210.48 -20.19,-209.93 -17.22,-208.28"/>
    </edge>
    <edge id=":R8_0" function="internal">
        <lane id=":R8_0_0" index="0" speed="7.35" length="9.47" shape="-7.25,-186.10 -9.34,-187.06 -11.47,-187.18 -13.66,-186.45 -15.90,-184.88"/>
    </edge>
    <edge id=":R8_1" function="internal">
        <lane id=":R8_1_0" index="0" speed="13.63" length="12.49" shape="-12.18,-203.73 -10.46,-201.04 -8.63,-199.18 -6.22,-197.68 -2.74,-196.04"/>
        <lane id=":R8_1_1" index="1" speed="13.89" length="13.79" shape="-12.18,-203.73 -10.74,-200.62 -9.49,-197.82 -7.56,-195.32 -4.06,-193.13"/>
    </edge>
    <edge id=":R8_3" function="internal">
        <lane id=":R8_3_0" index="0" speed="10.48" length="21.03" shape="-12.18,-203.73 -10.22,-198.65 -10.19,-193.81 -12.08,-189.22 -15.90,-184.88"/>
    </edge>
    <edge id=":R9_0" function="internal">
        <lane id=":R9_0_0" index="0" speed="7.46" length="9.69" shape="-30.58,-184.95 -32.82,-186.52 -35.05,-187.23 -37.26,-187.09 -39.45,-186.10"/>
        <lane id=":R9_0_1" index="1" speed="8.23" length="11.98" shape="-30.58,-184.95 -33.86,-187.51 -36.72,-189.01 -39.16,-189.43 -41.17,-188.80"/>
    </edge>
    <edge id=":R9_2" function="internal">
        <lane id=":R9_2_0" index="0" speed="10.47" length="21.00" shape="-30.58,-184.95 -34.36,-189.28 -36.22,-193.86 -36.16,-198.70 -34.17,-203.79"/>
    </edge>
    <edge id=":R9_3" function="internal">
        <lane id=":R9_3_0" index="0" speed="13.89" length="14.34" shape="-45.39,-195.38 -41.27,-197.27 -38.29,-199.01 -36.06,-201.04 -34.17,-203.79"/>
    </edge>

    <edge id="-E0" from="R2" to="R6" priority="-1" shape="-71.07,-131.55 -73.84,-146.94 -70.74,-161.70">
        <lane id="-E0_0" index="0" speed="13.89" length="15.20" shape="-76.98,-137.30 -78.73,-147.01 -77.62,-152.32"/>
        <lane id="-E0_1" index="1" speed="13.89" length="15.20" shape="-73.82,-137.80 -75.47,-146.96 -74.28,-152.63"/>
    </edge>
    <edge id="E-1" from="R1" to="1" priority="-1">
        <lane id="E-1_0" index="0" speed="13.89" length="96.47" shape="-80.78,-110.11 -163.73,-60.85"/>
    </edge>
    <edge id="E-10" from="R10" to="10" priority="-1">
        <lane id="E-10_0" index="0" speed="13.89" length="123.85" shape="36.31,-178.55 146.45,-235.18"/>
    </edge>
    <edge id="E-13" from="R13" to="13" priority="-1">
        <lane id="E-13_0" index="0" speed="13.89" length="88.86" shape="38.44,-117.97 118.41,-79.21"/>
    </edge>
    <edge id="E-4" from="R4" to="4" priority="-1">
        <lane id="E-4_0" index="0" speed="13.89" length="72.10" shape="-81.69,-180.63 -142.87,-218.77"/>
    </edge>
    <edge id="E-7" from="R7" to="7" priority="-1">
        <lane id="E-7_0" index="0" speed="13.89" length="87.12" shape="-24.76,-213.93 -24.61,-301.05"/>
    </edge>
    <edge id="E1" from="1" to="R1" priority="-1">
        <lane id="E1_0" index="0" speed="13.89" length="96.47" shape="-165.37,-63.61 -82.42,-112.86"/>
    </edge>
    <edge id="E10" from="10" to="R10" priority="-1">
        <lane id="E10_0" index="0" speed="13.89" length="123.85" shape="147.91,-232.34 37.77,-175.70"/>
    </edge>
    <edge id="E13" from="13" to="R13" priority="-1">
        <lane id="E13_0" index="0" speed="13.89" length="88.86" shape="117.01,-76.33 37.05,-115.09"/>
    </edge>
    <edge id="E4_" from="4" to="R4" priority="-1">
        <lane id="E4__0" index="0" speed="13.89" length="72.10" shape="-141.17,-221.49 -79.99,-183.35"/>
    </edge>
    <edge id="E7" from="7" to="R7" priority="-1">
        <lane id="E7_0" index="0" speed="13.89" length="87.12" shape="-21.41,-301.05 -21.56,-213.93"/>
    </edge>
    <edge id="RE-11" from="R11" to="R15" priority="-1" shape="25.32,-157.74 27.47,-145.26 25.58,-135.64">
        <lane id="RE-11_0" index="0" speed="13.89" length="12.05" shape="31.16,-152.14 32.35,-145.20 31.28,-139.73"/>
        <lane id="RE-11_1" index="1" speed="13.89" length="12.05" shape="27.99,-151.65 29.10,-145.24 28.14,-140.35"/>
    </edge>
    <edge id="RE-12" from="R12" to="R8" priority="-1" shape="14.43,-178.86 1.71,-185.87 -11.32,-194.61">
        <lane id="RE-12_0" index="0" speed="13.89" length="14.26" shape="4.76,-178.71 -0.79,-181.77 -7.25,-186.10"/>
        <lane id="RE-12_1" index="1" speed="13.89" length="14.26" shape="6.33,-181.50 0.88,-184.50 -5.91,-189.05"/>
    </edge>
    <edge id="RE-14" from="R14" to="R3" priority="-1" shape="15.23,-114.23 11.18,-109.88 6.60,-106.03 1.60,-102.75 -3.75,-100.09 -9.39,-98.08 -15.22,-96.77 -21.17,-96.16 -27.15,-96.26 -33.08,-97.08 -38.86,-98.60 -44.42,-100.80 -49.68,-103.65 -54.56,-107.11 -58.97,-111.09">
        <lane id="RE-14_0" index="0" speed="13.89" length="78.94" shape="15.44,-107.41 14.49,-106.39 9.47,-102.17 3.99,-98.58 -1.87,-95.66 -8.05,-93.46 -14.45,-92.02 -20.96,-91.36 -27.52,-91.47 -34.02,-92.36 -40.36,-94.03 -46.45,-96.44 -52.22,-99.57 -57.57,-103.36 -58.59,-104.28"/>
        <lane id="RE-14_1" index="1" speed="13.89" length="78.94" shape="13.09,-109.59 12.28,-108.72 7.56,-104.74 2.40,-101.36 -3.12,-98.61 -8.94,-96.54 -14.96,-95.19 -21.10,-94.56 -27.27,-94.66 -33.39,-95.51 -39.36,-97.08 -45.10,-99.35 -50.53,-102.29 -55.56,-105.86 -56.45,-106.66"/>
    </edge>
    <edge id="RE-15" from="R15" to="R11" priority="-1" shape="25.58,-135.64 23.95,-144.88 25.32,-157.74">
        <lane id="RE-15_0" index="0" speed="13.89" length="7.13" shape="19.36,-143.26 19.11,-144.71 19.71,-150.36"/>
        <lane id="RE-15_1" index="1" speed="13.89" length="7.13" shape="22.51,-143.82 22.34,-144.82 22.98,-150.87"/>
    </edge>
    <edge id="RE-3" from="R3" to="R14" priority="-1" shape="-58.97,-111.09 -42.29,-113.18 -32.23,-114.06 -19.85,-113.98 -5.17,-114.54 2.89,-114.20 15.23,-114.23">
        <lane id="RE-3_0" index="0" speed="13.89" length="50.61" shape="-47.39,-117.38 -42.80,-117.95 -32.42,-118.86 -19.93,-118.78 -5.16,-119.34 2.99,-119.00 3.33,-119.00"/>
        <lane id="RE-3_1" index="1" speed="13.89" length="50.61" shape="-46.99,-114.20 -42.46,-114.77 -32.29,-115.66 -19.88,-115.58 -5.17,-116.14 2.92,-115.80 3.33,-115.80"/>
    </edge>
    <edge id="RE-5" from="R5" to="R9" priority="-1" shape="-58.18,-181.87 -47.36,-189.27 -35.08,-194.67">
        <lane id="RE-5_0" index="0" speed="13.89" length="10.97" shape="-54.89,-189.93 -49.70,-193.48 -45.39,-195.38"/>
        <lane id="RE-5_1" index="1" speed="13.89" length="10.97" shape="-53.11,-187.28 -48.14,-190.67 -43.64,-192.65"/>
    </edge>
    <edge id="RE-6" from="R6" to="R2" priority="-1" shape="-70.74,-161.70 -68.85,-146.59 -71.07,-131.55">
        <lane id="RE-6_0" index="0" speed="13.89" length="14.61" shape="-64.88,-153.52 -64.01,-146.54 -65.09,-139.16"/>
        <lane id="RE-6_1" index="1" speed="13.89" length="14.61" shape="-68.07,-153.22 -67.24,-146.57 -68.41,-138.64"/>
    </edge>
    <edge id="RE-8" from="R8" to="R12" priority="-1" shape="-11.32,-194.61 1.92,-188.72 14.43,-178.86">
        <lane id="RE-8_0" index="0" speed="13.89" length="15.01" shape="-2.74,-196.04 4.42,-192.86 10.17,-188.33"/>
        <lane id="RE-8_1" index="1" speed="13.89" length="15.01" shape="-4.06,-193.13 2.75,-190.10 8.58,-185.51"/>
    </edge>
    <edge id="RE-9" from="R9" to="R5" priority="-1" shape="-35.08,-194.67 -45.99,-187.57 -58.18,-181.87">
        <lane id="RE-9_0" index="0" speed="13.89" length="10.78" shape="-39.45,-186.10 -43.65,-183.36 -48.83,-180.94"/>
        <lane id="RE-9_1" index="1" speed="13.89" length="10.78" shape="-41.17,-188.80 -45.21,-186.17 -50.65,-183.63"/>
    </edge>
    <edge id="RE1" from="R1" to="R2" priority="-1" shape="-76.59,-114.46 -78.20,-119.24 -77.70,-124.26 -75.18,-128.63 -71.07,-131.55">
        <lane id="RE1_0" index="0" speed="13.89" length="6.86" shape="-79.78,-119.49 -79.26,-124.76 -78.48,-126.11"/>
    </edge>
    <edge id="RE10" from="R10" to="R11" priority="-1" shape="31.86,-174.46 33.17,-169.60 32.36,-164.62 29.59,-160.41 25.32,-157.74">
        <lane id="RE10_0" index="0" speed="13.89" length="6.80" shape="34.73,-169.25 33.88,-164.03 33.05,-162.76"/>
    </edge>
    <edge id="RE11" from="R11" to="R12" priority="-1" shape="25.32,-157.74 19.63,-157.08 14.29,-159.16 10.52,-163.48 9.18,-169.06 10.59,-174.62 14.43,-178.86">
        <lane id="RE11_0" index="0" speed="13.89" length="15.71" shape="14.61,-157.32 13.34,-157.81 9.06,-162.72 7.53,-169.07 7.85,-170.34"/>
    </edge>
    <edge id="RE12" from="R12" to="R10" priority="-1" shape="14.43,-178.86 19.09,-180.79 24.13,-180.61 28.66,-178.37 31.86,-174.46">
        <lane id="RE12_0" index="0" speed="13.89" length="6.90" shape="22.95,-182.25 24.53,-182.20 29.30,-179.84"/>
    </edge>
    <edge id="RE13" from="R13" to="R14" priority="-1" shape="32.51,-119.07 29.41,-115.10 24.96,-112.75 19.93,-112.44 15.23,-114.23">
        <lane id="RE13_0" index="0" speed="13.89" length="6.78" shape="30.07,-113.64 25.40,-111.17 23.91,-111.08"/>
    </edge>
    <edge id="RE14" from="R14" to="R15" priority="-1" shape="15.23,-114.23 11.27,-118.38 9.72,-123.91 10.91,-129.53 14.57,-133.95 19.87,-136.16 25.58,-135.64">
        <lane id="RE14_0" index="0" speed="13.89" length="12.36" shape="8.46,-125.69 9.43,-130.25 13.59,-135.27 14.67,-135.73"/>
    </edge>
    <edge id="RE15" from="R15" to="R13" priority="-1" shape="25.58,-135.64 29.91,-133.06 32.78,-128.92 33.70,-123.97 32.51,-119.07">
        <lane id="RE15_0" index="0" speed="13.89" length="6.75" shape="33.46,-130.75 34.29,-129.55 35.26,-124.35"/>
    </edge>
    <edge id="RE2" from="R2" to="R3" priority="-1" shape="-71.07,-131.55 -65.42,-132.55 -59.96,-130.79 -55.95,-126.69 -54.29,-121.20 -55.38,-115.56 -58.97,-111.09">
        <lane id="RE2_0" index="0" speed="13.89" length="11.76" shape="-60.00,-132.48 -59.09,-132.19 -54.53,-127.53 -53.29,-123.42"/>
    </edge>
    <edge id="RE3" from="R3" to="R1" priority="-1" shape="-58.97,-111.09 -63.50,-108.91 -68.53,-108.80 -73.17,-110.76 -76.59,-114.46">
        <lane id="RE3_0" index="0" speed="13.89" length="6.77" shape="-67.35,-107.23 -68.84,-107.19 -73.70,-109.25"/>
    </edge>
    <edge id="RE4" from="R4" to="R5" priority="-1" shape="-75.90,-178.91 -72.39,-182.54 -67.70,-184.40 -62.66,-184.17 -58.18,-181.87">
        <lane id="RE4_0" index="0" speed="13.89" length="6.88" shape="-72.90,-184.06 -67.97,-186.01 -66.40,-185.94"/>
    </edge>
    <edge id="RE5" from="R5" to="R6" priority="-1" shape="-58.18,-181.87 -54.70,-177.32 -53.75,-171.67 -55.53,-166.22 -59.63,-162.22 -65.13,-160.58 -70.74,-161.70">
        <lane id="RE5_0" index="0" speed="13.89" length="15.36" shape="-52.34,-172.91 -52.11,-171.55 -54.13,-165.35 -58.79,-160.80 -59.69,-160.53"/>
    </edge>
    <edge id="RE6" from="R6" to="R4" priority="-1" shape="-70.74,-161.70 -74.79,-164.71 -77.21,-169.13 -77.61,-174.16 -75.90,-178.91">
        <lane id="RE6_0" index="0" speed="13.89" length="6.86" shape="-78.03,-167.30 -78.78,-168.66 -79.20,-173.95"/>
    </edge>
    <edge id="RE7" from="R7" to="R8" priority="-1" shape="-23.17,-208.11 -18.24,-207.04 -14.19,-204.04 -11.72,-199.64 -11.32,-194.61">
        <lane id="RE7_0" index="0" speed="13.89" length="6.89" shape="-17.22,-208.28 -12.96,-205.12 -12.18,-203.73"/>
    </edge>
    <edge id="RE8" from="R8" to="R9" priority="-1" shape="-11.32,-194.61 -13.35,-189.26 -17.65,-185.47 -23.22,-184.11 -28.79,-185.50 -33.08,-189.30 -35.08,-194.67">
        <lane id="RE8_0" index="0" speed="13.89" length="15.74" shape="-15.90,-184.88 -16.89,-184.01 -23.22,-182.46 -29.56,-184.04 -30.58,-184.95"/>
    </edge>
    <edge id="RE9" from="R9" to="R7" priority="-1" shape="-35.08,-194.67 -34.65,-199.69 -32.17,-204.08 -28.11,-207.06 -23.17,-208.11">
        <lane id="RE9_0" index="0" speed="13.89" length="6.88" shape="-34.17,-203.79 -33.39,-205.17 -29.12,-208.30"/>
    </edge>

    <junction id="1" type="dead_end" x="-164.55" y="-62.23" incLanes="E-1_0" intLanes="" shape="-164.55,-62.23 -162.92,-59.48 -164.55,-62.23"/>
    <junction id="10" type="dead_end" x="147.18" y="-233.76" incLanes="E-10_0" intLanes="" shape="147.18,-233.76 145.72,-236.61 147.18,-233.76"/>
    <junction id="13" type="dead_end" x="117.71" y="-77.77" incLanes="E-13_0" intLanes="" shape="117.71,-77.77 119.11,-80.65 117.71,-77.77"/>
    <junction id="4" type="dead_end" x="-142.02" y="-220.13" incLanes="E-4_0" intLanes="" shape="-142.02,-220.13 -143.71,-217.41 -142.02,-220.13"/>
    <junction id="7" type="dead_end" x="-23.01" y="-301.05" incLanes="E-7_0" intLanes="" shape="-23.01,-301.05 -26.21,-301.06 -23.01,-301.05"/>
    <junction id="R1" type="priority" x="-76.59" y="-114.46" incLanes="RE3_0 E1_0" intLanes=":R1_0_0 :R1_1_0 :R1_2_0" shape="-74.96,-108.04 -72.44,-110.45 -74.37,-111.47 -75.90,-112.71 -77.05,-114.19 -77.80,-115.90 -78.16,-117.84 -78.12,-120.02 -81.44,-118.96 -81.82,-116.67 -82.09,-115.81 -82.41,-115.12 -82.79,-114.60 -83.23,-114.24 -79.97,-108.73 -78.80,-109.03 -78.04,-108.99 -77.16,-108.81 -76.16,-108.51">
        <request index="0" response="000" foes="000" cont="0"/>
        <request index="1" response="000" foes="100" cont="0"/>
        <request index="2" response="010" foes="010" cont="0"/>
    </junction>
    <junction id="R10" type="priority" x="31.86" y="-174.46" incLanes="E10_0 RE12_0" intLanes=":R10_0_0 :R10_1_0 :R10_2_0" shape="33.04,-168.82 36.42,-169.67 36.94,-171.94 37.26,-172.78 37.63,-173.44 38.04,-173.94 38.50,-174.28 35.57,-179.97 34.39,-179.75 33.64,-179.84 32.77,-180.07 31.79,-180.43 30.63,-180.97 27.97,-178.71 29.83,-177.59 31.28,-176.25 32.33,-174.71 32.97,-172.96 33.21,-171.00">
        <request index="0" response="100" foes="100" cont="0"/>
        <request index="1" response="000" foes="000" cont="0"/>
        <request index="2" response="000" foes="001" cont="0"/>
    </junction>
    <junction id="R11" type="priority" x="25.32" y="-157.74" incLanes="RE10_0 RE-15_0 RE-15_1" intLanes=":R11_0_0 :R11_0_1 :R11_2_0 :R11_3_0" shape="18.07,-150.11 32.74,-152.38 32.18,-155.83 32.16,-157.10 32.41,-158.30 33.00,-159.64 34.01,-161.30 32.10,-164.23 29.86,-161.43 27.35,-159.41 24.54,-158.17 21.46,-157.70 18.10,-158.01 14.45,-159.10 14.77,-155.54 16.79,-154.29 17.46,-153.46 17.89,-152.48 18.10,-151.37">
        <request index="0" response="0000" foes="0000" cont="0"/>
        <request index="1" response="0000" foes="0000" cont="0"/>
        <request index="2" response="0000" foes="1000" cont="0"/>
        <request index="3" response="0100" foes="0100" cont="0"/>
    </junction>
    <junction id="R12" type="priority" x="14.43" y="-178.86" incLanes="RE-8_0 RE-8_1 RE11_0" intLanes=":R12_0_0 :R12_1_0 :R12_1_1 :R12_3_0" shape="23.59,-180.63 22.31,-183.88 19.60,-184.12 17.64,-184.62 16.12,-185.41 14.71,-186.52 13.10,-187.95 10.96,-189.74 3.98,-177.31 5.82,-175.81 6.36,-174.89 6.66,-173.87 6.70,-172.74 6.50,-171.50 9.21,-169.17 10.44,-172.79 12.14,-175.72 14.31,-177.97 16.94,-179.54 20.03,-180.42">
        <request index="0" response="1000" foes="1000" cont="0"/>
        <request index="1" response="0000" foes="0000" cont="0"/>
        <request index="2" response="0000" foes="0000" cont="0"/>
        <request index="3" response="0000" foes="0001" cont="0"/>
    </junction>
    <junction id="R13" type="priority" x="32.51" y="-119.07" incLanes="E13_0 RE15_0" intLanes=":R13_0_0 :R13_1_0 :R13_2_0" shape="36.35,-113.65 39.14,-119.41 38.25,-120.23 37.86,-120.89 37.52,-121.72 37.23,-122.71 36.96,-123.97 33.56,-124.73 33.77,-122.57 33.58,-120.61 32.98,-118.84 31.97,-117.28 30.55,-115.91 28.72,-114.74 31.43,-112.55 33.54,-113.50 34.40,-113.74 35.16,-113.85 35.81,-113.82">
        <request index="0" response="100" foes="100" cont="0"/>
        <request index="1" response="000" foes="000" cont="0"/>
        <request index="2" response="000" foes="001" cont="0"/>
    </junction>
    <junction id="R14" type="priority" x="15.23" y="-114.23" incLanes="RE13_0 RE-3_0 RE-3_1" intLanes=":R14_0_0 :R14_0_1 :R14_2_0 :R14_3_0" shape="23.32,-109.44 24.50,-112.72 19.28,-112.82 15.21,-113.82 12.28,-115.73 10.49,-118.55 9.85,-122.28 10.36,-126.91 6.57,-124.47 5.84,-122.32 5.35,-121.57 4.76,-121.03 4.09,-120.71 3.32,-120.60 3.34,-114.20 6.88,-114.11 9.58,-113.82 11.43,-113.33 12.44,-112.65 12.60,-111.76 11.92,-110.68 16.61,-106.32 18.65,-108.28 19.52,-108.81 20.50,-109.13 21.71,-109.32">
        <request index="0" response="0000" foes="0000" cont="0"/>
        <request index="1" response="0000" foes="0000" cont="0"/>
        <request index="2" response="0000" foes="1000" cont="0"/>
        <request index="3" response="0100" foes="0100" cont="0"/>
    </junction>
    <junction id="R15" type="priority" x="25.58" y="-135.64" incLanes="RE-11_0 RE-11_1 RE14_0" intLanes=":R15_0_0 :R15_1_0 :R15_1_1 :R15_3_0" shape="32.54,-129.27 34.38,-132.23 33.19,-134.50 32.85,-135.68 32.68,-136.90 32.68,-138.14 32.85,-139.42 26.57,-140.65 25.85,-138.81 25.45,-139.01 25.03,-139.96 24.57,-141.65 24.09,-144.10 17.79,-142.99 17.76,-140.63 17.38,-139.65 16.76,-138.80 15.90,-138.09 14.79,-137.51 14.56,-133.94 17.30,-136.51 20.13,-137.73 23.07,-137.62 26.12,-136.17 29.27,-133.39">
        <request index="0" response="1000" foes="1000" cont="0"/>
        <request index="1" response="0000" foes="0000" cont="0"/>
        <request index="2" response="0000" foes="0000" cont="0"/>
        <request index="3" response="0000" foes="0001" cont="0"/>
    </junction>
    <junction id="R2" type="priority" x="-71.07" y="-131.55" incLanes="RE-6_0 RE-6_1 RE1_0" intLanes=":R2_0_0 :R2_1_0 :R2_1_1 :R2_3_0" shape="-59.76,-130.58 -60.22,-134.23 -62.27,-135.36 -62.93,-136.14 -63.34,-137.08 -63.51,-138.18 -63.44,-139.42 -78.56,-137.05 -78.17,-135.00 -77.90,-133.41 -77.82,-132.07 -78.02,-130.79 -78.55,-129.34 -79.51,-127.52 -77.44,-124.71 -74.54,-129.06 -71.61,-132.06 -68.68,-133.71 -65.72,-134.02 -62.75,-132.97">
        <request index="0" response="1000" foes="1000" cont="0"/>
        <request index="1" response="0000" foes="0000" cont="0"/>
        <request index="2" response="0000" foes="0000" cont="0"/>
        <request index="3" response="0000" foes="0001" cont="0"/>
    </junction>
    <junction id="R3" type="priority" x="-58.97" y="-111.09" incLanes="RE-14_0 RE-14_1 RE2_0" intLanes=":R3_0_0 :R3_1_0 :R3_1_1 :R3_3_0" shape="-59.66,-103.10 -55.38,-107.85 -56.02,-109.82 -55.03,-110.66 -53.16,-111.41 -50.41,-112.06 -46.79,-112.62 -47.59,-118.97 -49.15,-119.20 -49.81,-119.66 -50.39,-120.34 -50.88,-121.24 -51.30,-122.37 -55.28,-124.48 -54.35,-119.79 -54.65,-115.94 -56.17,-112.92 -58.91,-110.72 -62.88,-109.35 -68.08,-108.81 -66.62,-105.64 -63.78,-105.57 -62.79,-105.33 -61.87,-104.88 -60.88,-104.15">
        <request index="0" response="1000" foes="1000" cont="0"/>
        <request index="1" response="0000" foes="0000" cont="0"/>
        <request index="2" response="0000" foes="0000" cont="0"/>
        <request index="3" response="0000" foes="0001" cont="0"/>
    </junction>
    <junction id="R4" type="priority" x="-75.90" y="-178.91" incLanes="E4__0 RE6_0" intLanes=":R4_0_0 :R4_1_0 :R4_2_0" shape="-71.67,-182.82 -74.14,-185.29 -76.34,-184.57 -77.23,-184.42 -77.99,-184.39 -78.63,-184.48 -79.15,-184.70 -82.53,-179.27 -81.74,-178.37 -81.43,-177.68 -81.18,-176.81 -80.99,-175.79 -80.85,-174.52 -77.55,-173.39 -77.54,-175.57 -77.14,-177.50 -76.35,-179.19 -75.18,-180.64 -73.62,-181.85">
        <request index="0" response="100" foes="100" cont="0"/>
        <request index="1" response="000" foes="000" cont="0"/>
        <request index="2" response="000" foes="001" cont="0"/>
    </junction>