<routes>
    <vType id="agenttype" accel="4.0" emergencyDecel="7.0" sigma="0" length="5" maxspeed="30" color="red"/>

    <vType id="npctype" accel="0.8" sigma="0.5" length="5"/>

    <vehicle id="agent" type="agenttype" depart="0">
        <route edges="E13 RE-14"/>
    </vehicle>

    <vehicle id="npc0" type="npctype" depart="2">
        <route edges="RE12 RE-6"/>
    </vehicle>

    <vehicle id="npc1" type="npctype" depart="4">
        <route edges="E7 -E0"/>
    </vehicle>

    <vehicle id="npc2" type="npctype" depart="5">
        <route edges="RE3 RE-3"/>
    </vehicle>

    <vehicle id="npc3" type="npctype" depart="12">
        <route edges="RE14 E-4"/>
    </vehicle>

    <vehicle id="npc4" type="npctype" depart="15">
        <route edges="RE7 RE-11"/>
    </vehicle>

</routes>
