<?xml version="1.0" encoding="UTF-8"?>

<!-- generated on 2022-07-29 15:02:42 by Eclipse SUMO netedit Version v1_14_1+0076-c68646acd3a
<configuration xmlns:xsi="http://www.w3.org/2001/XMLSchema-instance" xsi:noNamespaceSchemaLocation="http://sumo.dlr.de/xsd/netconvertConfiguration.xsd">

    <input>
        <sumo-net-file value="magic.net.xml"/>
    </input>

    <output>
        <output-file value="magic.net.xml"/>
    </output>

    <processing>
        <geometry.min-radius.fix.railways value="false"/>
        <geometry.max-grade.fix value="false"/>
        <offset.disable-normalization value="true"/>
        <lefthand value="false"/>
    </processing>

    <junctions>
        <no-turnarounds value="true"/>
        <junctions.corner-detail value="5"/>
        <junctions.limit-turn-speed value="5.5"/>
        <rectangular-lane-cut value="false"/>
    </junctions>

    <pedestrian>
        <walkingareas value="false"/>
    </pedestrian>

</configuration>
-->

<net version="1.9" junctionCornerDetail="5" limitTurnSpeed="5.50" xmlns:xsi="http://www.w3.org/2001/XMLSchema-instance" xsi:noNamespaceSchemaLocation="http://sumo.dlr.de/xsd/net_file.xsd">

    <location netOffset="0.00,0.00" convBoundary="-164.55,-301.05,147.18,-62.23" origBoundary="-10000000000.00,-10000000000.00,10000000000.00,10000000000.00" projParameter="!"/>

    <edge id=":R1_0" function="internal">
        <lane id=":R1_0_0" index="0" speed="8.02" length="7.34" shape="-73.70,-109.25 -76.01,-110.09 -77.97,-110.52 -79.55,-110.52 -80.78,-110.11"/>
    </edge>
    <edge id=":R1_1" function="internal">
        <lane id=":R1_1_0" index="0" speed="8.63" length="12.86" shape="-73.70,-109.25 -76.64,-110.97 -78.63,-113.25 -79.68,-116.09 -79.78,-119.49"/>
    </edge>
    <edge id=":R1_2" function="internal">
        <lane id=":R1_2_0" index="0" speed="8.02" length="7.34" shape="-82.42,-112.86 -81.47,-113.74 -80.71,-115.14 -80.15,-117.06 -79.78,-119.49"/>
    </edge>
    <edge id=":R10_0" function="internal">
        <lane id=":R10_0_0" index="0" speed="8.02" length="7.34" shape="37.77,-175.70 36.77,-174.88 35.93,-173.53 35.25,-171.65 34.73,-169.25"/>
    </edge>
    <edge id=":R10_1" function="internal">
        <lane id=":R10_1_0" index="0" speed="8.02" length="7.33" shape="29.30,-179.84 31.56,-178.86 33.48,-178.32 35.06,-178.21 36.31,-178.55"/>
    </edge>
    <edge id=":R10_2" function="internal">
        <lane id=":R10_2_0" index="0" speed="8.62" length="12.86" shape="29.30,-179.84 32.12,-177.95 33.97,-175.55 34.84,-172.65 34.73,-169.25"/>
    </edge>
    <edge id=":R11_0" function="internal">
        <lane id=":R11_0_0" index="0" speed="7.62" length="9.54" shape="33.66,-163.69 32.47,-161.33 32.08,-159.07 32.46,-156.89 33.64,-154.81"/>
    </edge>
    <edge id=":R11_1" function="internal">
        <lane id=":R11_1_0" index="0" speed="9.97" length="27.28" shape="33.66,-163.69 28.19,-157.20 22.71,-154.37 17.22,-155.19 11.73,-159.66"/>
    </edge>
    <edge id=":R11_2" function="internal">
        <lane id=":R11_2_0" index="0" speed="6.95" length="9.25" shape="13.59,-151.39 14.46,-153.08 14.44,-155.02 13.53,-157.21 11.73,-159.66"/>
    </edge>
    <edge id=":R11_3" function="internal">
        <lane id=":R11_3_0" index="0" speed="8.39" length="18.26" shape="16.05,-149.34 20.48,-153.68 24.46,-155.71 28.00,-155.44 31.11,-152.86"/>
    </edge>
    <edge id=":R12_0" function="internal">
        <lane id=":R12_0_0" index="0" speed="6.57" length="16.49" shape="1.36,-181.87 6.78,-180.50 9.30,-181.13 8.91,-183.75 5.63,-188.37"/>
    </edge>
    <edge id=":R12_1" function="internal">
        <lane id=":R12_1_0" index="0" speed="13.89" length="16.48" shape="2.07,-178.24 7.00,-177.45 10.87,-178.37 14.21,-180.13 17.51,-181.87"/>
    </edge>
    <edge id=":R12_2" function="internal">
        <lane id=":R12_2_0" index="0" speed="12.22" length="18.10" shape="8.52,-172.96 9.73,-178.94 10.04,-183.87 9.46,-187.73 8.00,-190.53"/>
    </edge>
    <edge id=":R12_3" function="internal">
        <lane id=":R12_3_0" index="0" speed="10.60" length="13.12" shape="8.52,-172.96 9.63,-175.69 11.50,-178.08 14.13,-180.14 17.51,-181.87"/>
    </edge>
    <edge id=":R13_0" function="internal">
        <lane id=":R13_0_0" index="0" speed="8.01" length="7.34" shape="37.05,-115.09 35.79,-115.40 34.20,-115.26 32.30,-114.68 30.07,-113.64"/>
    </edge>
    <edge id=":R13_1" function="internal">
        <lane id=":R13_1_0" index="0" speed="8.02" length="7.34" shape="35.26,-124.35 35.83,-121.96 36.55,-120.10 37.42,-118.77 38.44,-117.97"/>
    </edge>
    <edge id=":R13_2" function="internal">
        <lane id=":R13_2_0" index="0" speed="8.63" length="12.84" shape="35.26,-124.35 35.44,-120.96 34.64,-118.04 32.85,-115.60 30.07,-113.64"/>
    </edge>
    <edge id=":R14_0" function="internal">
        <lane id=":R14_0_0" index="0" speed="13.89" length="24.76" shape="18.40,-111.31 13.99,-112.36 8.09,-112.92 1.20,-113.06 -6.21,-112.90"/>
    </edge>
    <edge id=":R14_1" function="internal">
        <lane id=":R14_1_0" index="0" speed="10.01" length="11.69" shape="18.40,-111.31 14.99,-112.84 12.39,-114.54 10.59,-116.41 9.59,-118.43"/>
    </edge>
    <edge id=":R14_2" function="internal">
        <lane id=":R14_2_0" index="0" speed="5.73" length="12.68" shape="-4.55,-105.05 -0.81,-107.25 0.16,-108.76 -1.63,-109.58 -6.20,-109.70"/>
    </edge>
    <edge id=":R14_3" function="internal">
        <lane id=":R14_3_0" index="0" speed="10.42" length="21.25" shape="-2.10,-102.70 3.93,-106.32 7.89,-110.15 9.78,-114.18 9.59,-118.43"/>
    </edge>
    <edge id=":R15_0" function="internal">
        <lane id=":R15_0_0" index="0" speed="8.31" length="8.90" shape="35.07,-137.74 34.28,-136.54 33.91,-134.70 33.93,-132.23 34.37,-129.14"/>
    </edge>
    <edge id=":R15_1" function="internal">
        <lane id=":R15_1_0" index="0" speed="7.41" length="23.58" shape="32.63,-140.24 29.75,-135.65 24.53,-135.40 19.23,-138.66 16.12,-144.60"/>
    </edge>
    <edge id=":R15_2" function="internal">
        <lane id=":R15_2_0" index="0" speed="9.77" length="10.08" shape="11.13,-132.30 12.49,-134.37 13.31,-136.64 13.61,-139.11 13.37,-141.80"/>
    </edge>
    <edge id=":R15_3" function="internal">
        <lane id=":R15_3_0" index="0" speed="10.06" length="35.25" shape="11.13,-132.30 19.52,-140.48 26.19,-142.68 31.14,-138.90 34.37,-129.14"/>
    </edge>
    <edge id=":R2_0" function="internal">
        <lane id=":R2_0_0" index="0" speed="7.15" length="11.07" shape="-75.04,-141.64 -71.06,-140.72 -68.06,-140.60 -66.02,-141.28 -64.96,-142.78"/>
    </edge>
    <edge id=":R2_1" function="internal">
        <lane id=":R2_1_0" index="0" speed="13.89" length="18.70" shape="-79.43,-139.61 -61.91,-133.10"/>
    </edge>
    <edge id=":R2_2" function="internal">
        <lane id=":R2_2_0" index="0" speed="13.89" length="15.77" shape="-75.26,-130.54 -62.89,-140.32"/>
    </edge>
    <edge id=":R2_3" function="internal">
        <lane id=":R2_3_0" index="0" speed="10.98" length="14.11" shape="-75.26,-130.54 -71.93,-132.47 -68.60,-133.54 -65.26,-133.75 -61.91,-133.10"/>
    </edge>
    <edge id=":R3_0" function="internal">
        <lane id=":R3_0_0" index="0" speed="5.56" length="11.63" shape="-38.21,-108.72 -42.33,-108.07 -43.91,-107.06 -42.94,-105.70 -39.42,-103.98"/>
    </edge>
    <edge id=":R3_1" function="internal">
        <lane id=":R3_1_0" index="0" speed="13.89" length="23.69" shape="-38.61,-111.90 -45.82,-111.21 -52.29,-110.39 -57.74,-109.33 -61.88,-107.91"/>
    </edge>
    <edge id=":R3_2" function="internal">
        <lane id=":R3_2_0" index="0" speed="10.25" length="20.57" shape="-53.66,-116.02 -53.57,-111.68 -51.54,-107.80 -47.57,-104.38 -41.66,-101.43"/>
    </edge>
    <edge id=":R3_3" function="internal">
        <lane id=":R3_3_0" index="0" speed="10.12" length="11.93" shape="-53.66,-116.02 -54.51,-113.80 -56.16,-111.71 -58.62,-109.74 -61.88,-107.91"/>
    </edge>
    <edge id=":R4_0" function="internal">
        <lane id=":R4_0_0" index="0" speed="8.02" length="7.33" shape="-79.99,-183.35 -78.78,-182.91 -77.19,-182.88 -75.23,-183.26 -72.90,-184.06"/>
    </edge>
    <edge id=":R4_1" function="internal">
        <lane id=":R4_1_0" index="0" speed="8.03" length="7.33" shape="-79.20,-173.95 -79.51,-176.39 -80.03,-178.32 -80.76,-179.73 -81.69,-180.63"/>
    </edge>
    <edge id=":R4_2" function="internal">
        <lane id=":R4_2_0" index="0" speed="8.62" length="12.86" shape="-79.20,-173.95 -79.03,-177.35 -77.92,-180.17 -75.88,-182.40 -72.90,-184.06"/>
    </edge>
    <edge id=":R5_0" function="internal">
        <lane id=":R5_0_0" index="0" speed="6.81" length="20.29" shape="-54.44,-188.73 -60.38,-185.52 -61.69,-183.90 -58.35,-183.88 -50.39,-185.46"/>
    </edge>
    <edge id=":R5_1" function="internal">
        <lane id=":R5_1_0" index="0" speed="13.89" length="11.78" shape="-58.97,-188.51 -57.65,-185.15 -56.54,-182.81 -55.24,-180.74 -53.38,-178.23"/>
    </edge>
    <edge id=":R5_2" function="internal">
        <lane id=":R5_2_0" index="0" speed="13.89" length="12.27" shape="-62.63,-185.77 -59.55,-185.27 -57.18,-184.29 -54.63,-183.15 -50.98,-182.14"/>
    </edge>
    <edge id=":R5_3" function="internal">
        <lane id=":R5_3_0" index="0" speed="10.70" length="12.21" shape="-62.63,-185.77 -60.70,-185.24 -58.51,-183.80 -56.07,-181.47 -53.38,-178.23"/>
    </edge>
    <edge id=":R6_0" function="internal">
        <lane id=":R6_0_0" index="0" speed="7.21" length="11.72" shape="-63.67,-151.96 -65.39,-154.57 -67.59,-155.93 -70.25,-156.05 -73.40,-154.92"/>
    </edge>
    <edge id=":R6_1" function="internal">
        <lane id=":R6_1_0" index="0" speed="13.89" length="15.10" shape="-61.75,-155.43 -64.45,-158.91 -67.75,-160.32 -71.23,-161.06 -74.48,-162.49"/>
    </edge>
    <edge id=":R6_2" function="internal">
        <lane id=":R6_2_0" index="0" speed="13.89" length="14.93" shape="-60.29,-160.35 -63.67,-159.82 -66.91,-159.80 -70.49,-159.40 -74.87,-157.77"/>
    </edge>
    <edge id=":R6_3" function="internal">
        <lane id=":R6_3_0" index="0" speed="11.28" length="14.89" shape="-60.29,-160.35 -64.21,-159.58 -67.88,-159.68 -71.30,-160.65 -74.48,-162.49"/>
    </edge>
    <edge id=":R7_0" function="internal">
        <lane id=":R7_0_0" index="0" speed="8.02" length="7.34" shape="-21.56,-213.93 -21.29,-212.66 -20.48,-211.30 -19.12,-209.84 -17.22,-208.28"/>
    </edge>
    <edge id=":R7_1" function="internal">
        <lane id=":R7_1_0" index="0" speed="8.01" length="7.33" shape="-29.12,-208.30 -27.22,-209.85 -25.85,-211.31 -25.03,-212.67 -24.76,-213.93"/>
    </edge>
    <edge id=":R7_2" function="internal">
        <lane id=":R7_2_0" index="0" speed="8.63" length="12.85" shape="-29.12,-208.30 -26.14,-209.94 -23.17,-210.48 -20.19,-209.93 -17.22,-208.28"/>
    </edge>
    <edge id=":R8_0" function="internal">
        <lane id=":R8_0_0" index="0" speed="6.35" length="9.72" shape="-1.24,-191.05 -3.96,-190.93 -5.82,-189.93 -6.84,-188.06 -7.01,-185.31"/>
    </edge>
    <edge id=":R8_1" function="internal">
        <lane id=":R8_1_0" index="0" speed="13.18" length="17.31" shape="-0.42,-194.21 -2.98,-193.83 -6.28,-192.28 -10.32,-189.53 -15.09,-185.59"/>
    </edge>
    <edge id=":R8_2" function="internal">
        <lane id=":R8_2_0" index="0" speed="13.89" length="13.32" shape="-10.04,-198.72 -9.98,-195.48 -10.19,-192.69 -10.37,-189.60 -10.23,-185.42"/>
    </edge>
    <edge id=":R8_3" function="internal">
        <lane id=":R8_3_0" index="0" speed="11.18" length="14.60" shape="-10.04,-198.72 -10.12,-194.86 -10.98,-191.38 -12.64,-188.29 -15.09,-185.59"/>
    </edge>
    <edge id=":R9_0" function="internal">
        <lane id=":R9_0_0" index="0" speed="13.89" length="12.50" shape="-33.39,-187.44 -35.45,-189.82 -36.66,-192.17 -38.02,-194.69 -40.51,-197.62"/>
    </edge>
    <edge id=":R9_1" function="internal">
        <lane id=":R9_1_0" index="0" speed="10.47" length="12.82" shape="-33.39,-187.44 -34.93,-189.40 -35.93,-192.07 -36.38,-195.44 -36.27,-199.51"/>
    </edge>
    <edge id=":R9_2" function="internal">
        <lane id=":R9_2_0" index="0" speed="8.70" length="35.22" shape="-42.10,-187.96 -31.05,-195.99 -27.48,-199.68 -31.40,-199.05 -42.82,-194.08"/>
    </edge>
    <edge id=":R9_3" function="internal">
        <lane id=":R9_3_0" index="0" speed="10.92" length="12.86" shape="-38.14,-186.83 -37.71,-187.84 -37.26,-190.29 -36.78,-194.18 -36.27,-199.51"/>
    </edge>

    <edge id="E-1" from="R1" to="1" priority="-1">
        <lane id="E-1_0" index="0" speed="13.89" length="96.47" shape="-80.78,-110.11 -163.73,-60.85"/>
    </edge>
    <edge id="E-10" from="R10" to="10" priority="-1">
        <lane id="E-10_0" index="0" speed="13.89" length="123.85" shape="36.31,-178.55 146.45,-235.18"/>
    </edge>
    <edge id="E-13" from="R13" to="13" priority="-1">
        <lane id="E-13_0" index="0" speed="13.89" length="88.86" shape="38.44,-117.97 118.41,-79.21"/>
    </edge>
    <edge id="E-4" from="R4" to="4" priority="-1">
        <lane id="E-4_0" index="0" speed="13.89" length="72.10" shape="-81.69,-180.63 -142.87,-218.77"/>
    </edge>
    <edge id="E-7" from="R7" to="7" priority="-1">
        <lane id="E-7_0" index="0" speed="13.89" length="87.12" shape="-24.76,-213.93 -24.61,-301.05"/>
    </edge>
    <edge id="E1" from="1" to="R1" priority="-1">
        <lane id="E1_0" index="0" speed="13.89" length="96.47" shape="-165.37,-63.61 -82.42,-112.86"/>
    </edge>
    <edge id="E10" from="10" to="R10" priority="-1">
        <lane id="E10_0" index="0" speed="13.89" length="123.85" shape="147.91,-232.34 37.77,-175.70"/>
    </edge>
    <edge id="E13" from="13" to="R13" priority="-1">
        <lane id="E13_0" index="0" speed="13.89" length="88.86" shape="117.01,-76.33 37.05,-115.09"/>
    </edge>
    <edge id="E4_" from="4" to="R4" priority="-1">
        <lane id="E4__0" index="0" speed="13.89" length="72.10" shape="-141.17,-221.49 -79.99,-183.35"/>
    </edge>
    <edge id="E7" from="7" to="R7" priority="-1">
        <lane id="E7_0" index="0" speed="13.89" length="87.12" shape="-21.41,-301.05 -21.56,-213.93"/>
    </edge>
    <edge id="RE-11" from="R11" to="R15" priority="-1" shape="25.32,-157.74 29.90,-151.80 31.92,-146.98 31.06,-140.59 25.58,-135.64">
        <lane id="RE-11_0" index="0" speed="13.89" length="15.65" shape="33.64,-154.81 34.08,-154.23 36.85,-147.63 35.58,-138.21 35.07,-137.74"/>
        <lane id="RE-11_1" index="1" speed="13.89" length="15.65" shape="31.11,-152.86 31.29,-152.61 33.56,-147.20 32.63,-140.24"/>
    </edge>
    <edge id="RE-12" from="R12" to="R8" priority="-1" shape="14.43,-178.86 11.44,-182.09 10.34,-190.23 6.20,-195.14 -2.15,-195.99 -7.08,-193.42 -11.32,-194.61">
        <lane id="RE-12_0" index="0" speed="13.89" length="8.90" shape="5.63,-188.37 3.78,-190.56 -1.24,-191.05"/>
        <lane id="RE-12_1" index="1" speed="13.89" length="8.90" shape="8.00,-190.53 5.39,-193.61 -0.42,-194.21"/>
    </edge>
    <edge id="RE-14" from="R14" to="R3" priority="-1" shape="15.23,-114.23 2.89,-114.20 -5.17,-114.54 -19.85,-113.98 -32.23,-114.06 -42.29,-113.18 -58.97,-111.09">
        <lane id="RE-14_0" index="0" speed="13.89" length="32.24" shape="-6.20,-109.70 -19.77,-109.18 -32.04,-109.26 -38.21,-108.72"/>
        <lane id="RE-14_1" index="1" speed="13.89" length="32.24" shape="-6.21,-112.90 -19.82,-112.38 -32.17,-112.46 -38.61,-111.90"/>
    </edge>
    <edge id="RE-15" from="R15" to="R11" priority="-1" shape="25.58,-135.64 18.26,-141.75 17.69,-144.91 17.44,-148.51 21.14,-152.88 25.32,-157.74">
        <lane id="RE-15_0" index="0" speed="13.89" length="7.44" shape="13.37,-141.80 12.92,-144.32 12.52,-150.12 13.59,-151.39"/>
        <lane id="RE-15_1" index="1" speed="13.89" length="7.44" shape="16.12,-144.60 16.10,-144.71 15.80,-149.05 16.05,-149.34"/>
    </edge>
    <edge id="RE-2" from="R2" to="R6" priority="-1" shape="-71.07,-131.55 -60.80,-139.96 -59.00,-145.85 -58.01,-151.13 -60.87,-157.36 -70.74,-161.70">
        <lane id="RE-2_0" index="0" speed="13.89" length="12.90" shape="-64.96,-142.78 -63.67,-147.00 -63.01,-150.51 -63.67,-151.96"/>
        <lane id="RE-2_1" index="1" speed="13.89" length="12.90" shape="-62.89,-140.32 -62.19,-140.89 -60.56,-146.23 -59.68,-150.92 -61.75,-155.43"/>
    </edge>
    <edge id="RE-3" from="R3" to="R14" priority="-1" shape="-58.97,-111.09 -54.56,-107.11 -49.68,-103.65 -44.42,-100.80 -38.86,-98.60 -33.08,-97.08 -27.15,-96.26 -21.17,-96.16 -15.22,-96.77 -9.39,-98.08 -3.75,-100.09 1.60,-102.75 6.60,-106.03 11.18,-109.88 15.23,-114.23">
        <lane id="RE-3_0" index="0" speed="13.89" length="38.34" shape="-39.42,-103.98 -37.36,-103.17 -32.14,-101.80 -26.78,-101.05 -21.38,-100.96 -15.99,-101.52 -10.73,-102.70 -5.63,-104.52 -4.55,-105.05"/>
        <lane id="RE-3_1" index="1" speed="13.89" length="38.34" shape="-41.66,-101.43 -38.36,-100.12 -32.77,-98.65 -27.03,-97.86 -21.24,-97.76 -15.48,-98.35 -9.84,-99.62 -4.38,-101.57 -2.10,-102.70"/>
    </edge>
    <edge id="RE-5" from="R5" to="R9" priority="-1" shape="-58.18,-181.87 -50.70,-180.46 -45.46,-181.67 -41.09,-182.83 -36.69,-185.86 -35.08,-194.67">
        <lane id="RE-5_0" index="0" speed="13.89" length="11.31" shape="-50.39,-185.46 -46.62,-186.33 -43.13,-187.26 -42.10,-187.96"/>
        <lane id="RE-5_1" index="1" speed="13.89" length="11.31" shape="-50.98,-182.14 -50.73,-182.09 -45.85,-183.22 -41.77,-184.31 -38.14,-186.83"/>
    </edge>
    <edge id="RE-6" from="R6" to="R2" priority="-1" shape="-70.74,-161.70 -76.93,-158.50 -81.29,-153.95 -83.69,-145.57 -81.29,-138.50 -72.21,-135.79 -71.07,-131.55">
        <lane id="RE-6_0" index="0" speed="13.89" length="19.30" shape="-73.40,-154.92 -74.02,-154.60 -77.00,-151.49 -78.66,-145.69 -77.54,-142.39 -75.04,-141.64"/>
        <lane id="RE-6_1" index="1" speed="13.89" length="19.30" shape="-74.87,-157.77 -75.96,-157.20 -79.86,-153.13 -82.01,-145.61 -80.04,-139.80 -79.43,-139.61"/>
    </edge>
    <edge id="RE-8" from="R8" to="R12" priority="-1" shape="-11.32,-194.61 -11.83,-185.40 -11.47,-180.99 -4.09,-178.67 3.09,-176.20 14.43,-178.86">
        <lane id="RE-8_0" index="0" speed="13.89" length="12.68" shape="-7.01,-185.31 -6.95,-184.60 -2.59,-183.23 1.36,-181.87"/>
        <lane id="RE-8_1" index="1" speed="13.89" length="12.68" shape="-10.23,-185.42 -9.96,-182.19 -3.59,-180.19 2.07,-178.24"/>
    </edge>
    <edge id="RE-9" from="R9" to="R5" priority="-1" shape="-35.08,-194.67 -40.96,-200.26 -47.40,-197.23 -53.70,-194.43 -61.48,-190.65 -58.18,-181.87">
        <lane id="RE-9_0" index="0" speed="13.89" length="17.68" shape="-42.82,-194.08 -45.40,-192.86 -51.68,-190.08 -54.44,-188.73"/>
        <lane id="RE-9_1" index="1" speed="13.89" length="17.68" shape="-40.51,-197.62 -41.27,-198.35 -46.73,-195.77 -53.03,-192.98 -59.47,-189.85 -58.97,-188.51"/>
    </edge>
    <edge id="RE1" from="R1" to="R2" priority="-1" shape="-76.59,-114.46 -78.20,-119.24 -77.70,-124.26 -75.18,-128.63 -71.07,-131.55">
        <lane id="RE1_0" index="0" speed="13.89" length="12.43" shape="-79.78,-119.49 -79.26,-124.76 -76.39,-129.73 -75.26,-130.54"/>
    </edge>
    <edge id="RE10" from="R10" to="R11" priority="-1" shape="31.86,-174.46 33.17,-169.60 32.36,-164.62 29.59,-160.41 25.32,-157.74">
        <lane id="RE10_0" index="0" speed="13.89" length="5.70" shape="34.73,-169.25 33.88,-164.03 33.66,-163.69"/>
    </edge>
    <edge id="RE11" from="R11" to="R12" priority="-1" shape="25.32,-157.74 19.63,-157.08 14.29,-159.16 10.52,-163.48 9.18,-169.06 10.59,-174.62 14.43,-178.86">
        <lane id="RE11_0" index="0" speed="13.89" length="14.61" shape="11.73,-159.66 9.06,-162.72 7.53,-169.07 8.52,-172.96"/>
    </edge>
    <edge id="RE12" from="R12" to="R10" priority="-1" shape="14.43,-178.86 19.09,-180.79 24.13,-180.61 28.66,-178.37 31.86,-174.46">
        <lane id="RE12_0" index="0" speed="13.89" length="12.45" shape="17.51,-181.87 18.80,-182.40 24.53,-182.20 29.30,-179.84"/>
    </edge>
    <edge id="RE13" from="R13" to="R14" priority="-1" shape="32.51,-119.07 29.41,-115.10 24.96,-112.75 19.93,-112.44 15.23,-114.23">
        <lane id="RE13_0" index="0" speed="13.89" length="12.39" shape="30.07,-113.64 25.40,-111.17 19.68,-110.82 18.40,-111.31"/>
    </edge>
    <edge id="RE14" from="R14" to="R15" priority="-1" shape="15.23,-114.23 11.27,-118.38 9.72,-123.91 10.91,-129.53 14.57,-133.95 19.87,-136.16 25.58,-135.64">
        <lane id="RE14_0" index="0" speed="13.89" length="14.83" shape="9.59,-118.43 8.07,-123.86 9.43,-130.25 11.13,-132.30"/>
    </edge>
    <edge id="RE15" from="R15" to="R13" priority="-1" shape="25.58,-135.64 29.91,-133.06 32.78,-128.92 33.70,-123.97 32.51,-119.07">
        <lane id="RE15_0" index="0" speed="13.89" length="4.87" shape="34.37,-129.14 35.26,-124.35"/>
    </edge>
    <edge id="RE2" from="R2" to="R3" priority="-1" shape="-71.07,-131.55 -65.42,-132.55 -59.96,-130.79 -55.95,-126.69 -54.29,-121.20 -55.38,-115.56 -58.97,-111.09">
        <lane id="RE2_0" index="0" speed="13.89" length="21.37" shape="-61.91,-133.10 -59.09,-132.19 -54.53,-127.53 -52.64,-121.28 -53.66,-116.02"/>
    </edge>
    <edge id="RE3" from="R3" to="R1" priority="-1" shape="-58.97,-111.09 -63.50,-108.91 -68.53,-108.80 -73.17,-110.76 -76.59,-114.46">
        <lane id="RE3_0" index="0" speed="13.89" length="12.38" shape="-61.88,-107.91 -63.12,-107.32 -68.84,-107.19 -73.70,-109.25"/>
    </edge>
    <edge id="RE4" from="R4" to="R5" priority="-1" shape="-75.90,-178.91 -72.39,-182.54 -67.70,-184.40 -62.66,-184.17 -58.18,-181.87">
        <lane id="RE4_0" index="0" speed="13.89" length="10.65" shape="-72.90,-184.06 -67.97,-186.01 -62.63,-185.77"/>
    </edge>
    <edge id="RE5" from="R5" to="R6" priority="-1" shape="-58.18,-181.87 -54.70,-177.32 -53.75,-171.67 -55.53,-166.22 -59.63,-162.22 -65.13,-160.58 -70.74,-161.70">
        <lane id="RE5_0" index="0" speed="13.89" length="21.43" shape="-53.38,-178.23 -53.19,-177.98 -52.11,-171.55 -54.13,-165.35 -58.79,-160.80 -60.29,-160.35"/>
    </edge>
    <edge id="RE6" from="R6" to="R4" priority="-1" shape="-70.74,-161.70 -74.79,-164.71 -77.21,-169.13 -77.61,-174.16 -75.90,-178.91">
        <lane id="RE6_0" index="0" speed="13.89" length="12.96" shape="-74.48,-162.49 -76.03,-163.63 -78.78,-168.66 -79.20,-173.95"/>
    </edge>
    <edge id="RE7" from="R7" to="R8" priority="-1" shape="-23.17,-208.11 -18.24,-207.04 -14.19,-204.04 -11.72,-199.64 -11.32,-194.61">
        <lane id="RE7_0" index="0" speed="13.89" length="12.43" shape="-17.22,-208.28 -12.96,-205.12 -10.15,-200.12 -10.04,-198.72"/>
    </edge>
    <edge id="RE8" from="R8" to="R9" priority="-1" shape="-11.32,-194.61 -13.35,-189.26 -17.65,-185.47 -23.22,-184.11 -28.79,-185.50 -33.08,-189.30 -35.08,-194.67">
        <lane id="RE8_0" index="0" speed="13.89" length="20.56" shape="-15.09,-185.59 -16.89,-184.01 -23.22,-182.46 -29.56,-184.04 -33.39,-187.44"/>
    </edge>
    <edge id="RE9" from="R9" to="R7" priority="-1" shape="-35.08,-194.67 -34.65,-199.69 -32.17,-204.08 -28.11,-207.06 -23.17,-208.11">
        <lane id="RE9_0" index="0" speed="13.89" length="11.70" shape="-36.27,-199.51 -36.21,-200.17 -33.39,-205.17 -29.12,-208.30"/>
    </edge>

    <junction id="1" type="dead_end" x="-164.55" y="-62.23" incLanes="E-1_0" intLanes="" shape="-164.55,-62.23 -162.92,-59.48 -164.55,-62.23"/>
    <junction id="10" type="dead_end" x="147.18" y="-233.76" incLanes="E-10_0" intLanes="" shape="147.18,-233.76 145.72,-236.61 147.18,-233.76"/>
    <junction id="13" type="dead_end" x="117.71" y="-77.77" incLanes="E-13_0" intLanes="" shape="117.71,-77.77 119.11,-80.65 117.71,-77.77"/>
    <junction id="4" type="dead_end" x="-142.02" y="-220.13" incLanes="E-4_0" intLanes="" shape="-142.02,-220.13 -143.71,-217.41 -142.02,-220.13"/>
    <junction id="7" type="dead_end" x="-23.01" y="-301.05" incLanes="E-7_0" intLanes="" shape="-23.01,-301.05 -26.21,-301.06 -23.01,-301.05"/>
    <junction id="R1" type="priority" x="-76.59" y="-114.46" incLanes="RE3_0 E1_0" intLanes=":R1_0_0 :R1_1_0 :R1_2_0" shape="-74.96,-108.04 -72.44,-110.45 -74.37,-111.47 -75.90,-112.71 -77.05,-114.19 -77.80,-115.90 -78.16,-117.84 -78.12,-120.02 -81.44,-118.96 -81.82,-116.67 -82.09,-115.81 -82.41,-115.12 -82.79,-114.60 -83.23,-114.24 -79.97,-108.73 -78.80,-109.03 -78.04,-108.99 -77.16,-108.81 -76.16,-108.51">
        <request index="0" response="000" foes="000" cont="0"/>
        <request index="1" response="000" foes="100" cont="0"/>
        <request index="2" response="010" foes="010" cont="0"/>
    </junction>
    <junction id="R10" type="priority" x="31.86" y="-174.46" incLanes="E10_0 RE12_0" intLanes=":R10_0_0 :R10_1_0 :R10_2_0" shape="33.04,-168.82 36.42,-169.67 36.94,-171.94 37.26,-172.78 37.63,-173.44 38.04,-173.94 38.50,-174.28 35.57,-179.97 34.39,-179.75 33.64,-179.84 32.77,-180.07 31.79,-180.43 30.63,-180.97 27.97,-178.71 29.83,-177.59 31.28,-176.25 32.33,-174.71 32.97,-172.96 33.21,-171.00">
        <request index="0" response="100" foes="100" cont="0"/>
        <request index="1" response="000" foes="000" cont="0"/>
        <request index="2" response="000" foes="001" cont="0"/>
    </junction>
    <junction id="R11" type="priority" x="25.32" y="-157.74" incLanes="RE10_0 RE-15_0 RE-15_1" intLanes=":R11_0_0 :R11_1_0 :R11_2_0 :R11_3_0" shape="29.84,-151.88 34.91,-155.79 33.79,-157.92 33.62,-159.00 33.71,-160.09 34.06,-161.19 34.66,-162.30 32.48,-165.33 30.83,-160.50 28.01,-157.42 24.35,-156.05 20.21,-156.37 15.94,-158.33 11.90,-161.90 11.57,-157.41 12.79,-155.56 13.04,-154.70 13.05,-153.89 12.83,-153.13 12.36,-152.42 17.46,-148.16 17.90,-151.32 19.48,-153.57 21.82,-154.84 24.57,-155.03 27.37,-154.08">
        <request index="0" response="0000" foes="0000" cont="0"/>
        <request index="1" response="0000" foes="0100" cont="0"/>
        <request index="2" response="0010" foes="0010" cont="0"/>
        <request index="3" response="0000" foes="0000" cont="0"/>
    </junction>
    <junction id="R12" type="priority" x="14.43" y="-178.86" incLanes="RE-8_0 RE-8_1 RE11_0" intLanes=":R12_0_0 :R12_1_0 :R12_2_0 :R12_3_0" shape="18.13,-180.39 16.90,-183.35 14.63,-185.15 12.94,-187.05 11.26,-189.04 9.91,-190.70 9.18,-191.61 4.30,-187.15 4.22,-184.62 3.80,-183.87 3.13,-183.47 2.20,-183.40 1.01,-183.68 2.42,-176.43 4.13,-175.90 5.24,-175.52 6.25,-175.08 6.96,-174.61 7.16,-174.13 9.87,-171.80 11.44,-175.32 12.67,-176.84 14.19,-178.19 16.01,-179.37">
        <request index="0" response="0000" foes="0000" cont="0"/>
        <request index="1" response="1100" foes="1100" cont="0"/>
        <request index="2" response="0000" foes="0010" cont="0"/>
        <request index="3" response="0000" foes="0010" cont="0"/>
    </junction>
    <junction id="R13" type="priority" x="32.51" y="-119.07" incLanes="E13_0 RE15_0" intLanes=":R13_0_0 :R13_1_0 :R13_2_0" shape="36.35,-113.65 39.14,-119.41 38.25,-120.23 37.86,-120.89 37.52,-121.72 37.23,-122.71 36.96,-123.97 33.56,-124.73 33.77,-122.57 33.58,-120.61 32.98,-118.84 31.97,-117.28 30.55,-115.91 28.72,-114.74 31.43,-112.55 33.54,-113.50 34.40,-113.74 35.16,-113.85 35.81,-113.82">
        <request index="0" response="100" foes="100" cont="0"/>
        <request index="1" response="000" foes="000" cont="0"/>
        <request index="2" response="000" foes="001" cont="0"/>
    </junction>
    <junction id="R14" type="priority" x="15.23" y="-114.23" incLanes="RE13_0 RE-3_0 RE-3_1" intLanes=":R14_0_0 :R14_1_0 :R14_2_0 :R14_3_0" shape="17.83,-109.82 18.97,-112.81 16.84,-113.72 15.02,-114.73 13.52,-115.82 12.34,-117.00 11.47,-118.27 10.92,-119.63 8.27,-117.23 6.93,-115.97 4.95,-115.47 2.10,-115.06 -1.62,-114.74 -6.21,-114.50 -6.19,-108.10 -5.78,-106.23 -0.87,-101.52 4.53,-104.18 9.01,-106.32 12.58,-107.96 15.24,-109.09 16.99,-109.71">
        <request index="0" response="0000" foes="1000" cont="0"/>
        <request index="1" response="0000" foes="1000" cont="0"/>
        <request index="2" response="0000" foes="0000" cont="0"/>
        <request index="3" response="0011" foes="0011" cont="0"/>
    </junction>
    <junction id="R15" type="priority" x="25.58" y="-135.64" incLanes="RE-11_0 RE-11_1 RE14_0" intLanes=":R15_0_0 :R15_1_0 :R15_2_0 :R15_3_0" shape="33.06,-127.41 35.49,-130.62 34.56,-132.75 34.53,-133.76 34.79,-134.74 35.34,-135.68 36.18,-136.59 31.21,-141.70 29.87,-138.74 27.33,-137.59 24.22,-137.99 21.14,-139.70 18.73,-142.49 17.61,-146.12 12.00,-140.39 12.18,-138.09 12.06,-137.07 11.81,-136.14 11.43,-135.30 10.90,-134.54 11.35,-130.06 15.49,-133.94 19.93,-136.19 24.28,-136.73 28.17,-135.49 31.22,-132.41">
        <request index="0" response="1000" foes="1000" cont="0"/>
        <request index="1" response="0000" foes="0000" cont="0"/>
        <request index="2" response="0000" foes="0000" cont="0"/>
        <request index="3" response="0000" foes="0001" cont="0"/>
    </junction>
    <junction id="R2" type="priority" x="-71.07" y="-131.55" incLanes="RE-6_0 RE-6_1 RE1_0" intLanes=":R2_0_0 :R2_1_0 :R2_2_0 :R2_3_0" shape="-61.64,-131.33 -62.17,-134.87 -63.68,-135.83 -63.83,-136.48 -63.58,-137.24 -62.92,-138.11 -61.86,-139.10 -66.19,-144.23 -67.37,-142.61 -68.35,-142.21 -69.59,-142.08 -71.08,-142.23 -72.84,-142.66 -81.37,-138.72 -76.18,-131.84 -74.33,-129.23 -72.31,-130.47 -70.26,-131.36 -68.16,-131.89 -66.03,-132.06 -63.85,-131.87">
        <request index="0" response="0000" foes="0000" cont="0"/>
        <request index="1" response="1100" foes="1100" cont="0"/>
        <request index="2" response="0000" foes="0010" cont="0"/>
        <request index="3" response="0000" foes="0010" cont="0"/>
    </junction>
    <junction id="R3" type="priority" x="-58.97" y="-111.09" incLanes="RE-14_0 RE-14_1 RE2_0" intLanes=":R3_0_0 :R3_1_0 :R3_2_0 :R3_3_0" shape="-42.78,-100.15 -38.29,-105.26 -38.01,-107.13 -38.81,-113.48 -43.06,-113.19 -46.50,-113.10 -49.14,-113.24 -50.98,-113.59 -52.01,-114.15 -52.24,-114.94 -55.08,-117.10 -56.31,-114.21 -57.40,-112.88 -58.80,-111.63 -60.53,-110.45 -62.57,-109.36 -61.19,-106.47 -58.65,-106.00 -56.04,-105.16 -52.52,-103.90 -48.10,-102.23">
        <request index="0" response="0000" foes="0000" cont="0"/>