<routes>
    <vType id="agenttype" accel="4.0" emergencyDecel="7.0" sigma="0" length="5" maxspeed="30" color="red"/>

    <vType id="npctype" accel="0.8" sigma="0.5" length="5"/>

    <vehicle id="ego" type="agenttype" depart="0">
        <route edges="E7 RE-12"/>
    </vehicle>

    <vehicle id="npc0" type="npctype" depart="1">
        <route edges="RE2 RE-9"/>
    </vehicle>

    <vehicle id="npc1" type="npctype" depart="2">
        <route edges="RE11 E-10"/>
    </vehicle>

    <vehicle id="npc2" type="npctype" depart="4">
        <route edges="E10 -E0"/>
    </vehicle>

    <vehicle id="npc3" type="npctype" depart="15">
        <route edges="RE6 E-7"/>
    </vehicle>

</routes>
