<routes>
    <vType id="agenttype" accel="4.0" emergencyDecel="7.0" sigma="0" length="5" maxspeed="30" color="red"/>

    <vType id="npctype" accel="0.8" sigma="0.5" length="5"/>

    <vehicle id="agent" type="agenttype" depart="0">
        <route edges="E7 RE-3"/>
    </vehicle>

    <vehicle id="npc0" type="npctype" depart="1">
        <route edges="RE3 RE-5"/>
    </vehicle>

    <vehicle id="npc1" type="npctype" depart="2">
        <route edges="E1 RE-8"/>
    </vehicle>

    <vehicle id="npc2" type="npctype" depart="5">
        <route edges="RE15 RE-5"/>
    </vehicle>

    <vehicle id="npc3" type="npctype" depart="8">
        <route edges="RE11 E-1"/>
    </vehicle>

    <vehicle id="npc4" type="npctype" depart="12">
        <route edges="RE5 E-10"/>
    </vehicle>

    <vehicle id="npc5" type="npctype" depart="13">
        <route edges="RE10 RE-14"/>
    </vehicle>

</routes>
