<?xml version="1.0" encoding="UTF-8"?>

<!-- generated on 2022-05-26 10:19:30 by Eclipse SUMO netedit Version 1.13.0
<configuration xmlns:xsi="http://www.w3.org/2001/XMLSchema-instance" xsi:noNamespaceSchemaLocation="http://sumo.dlr.de/xsd/netconvertConfiguration.xsd">

    <input>
        <sumo-net-file value="simple.net.xml"/>
    </input>

    <output>
        <output-file value="simple.net.xml"/>
    </output>

    <processing>
        <geometry.min-radius.fix.railways value="false"/>
        <geometry.max-grade.fix value="false"/>
        <offset.disable-normalization value="true"/>
        <lefthand value="false"/>
    </processing>

    <junctions>
        <no-turnarounds value="true"/>
        <junctions.corner-detail value="5"/>
        <junctions.limit-turn-speed value="5.5"/>
        <rectangular-lane-cut value="false"/>
    </junctions>

    <pedestrian>
        <walkingareas value="false"/>
    </pedestrian>

    <report>
        <aggregate-warnings value="5"/>
    </report>

</configuration>
-->

<net version="1.9" junctionCornerDetail="5" limitTurnSpeed="5.50" xmlns:xsi="http://www.w3.org/2001/XMLSchema-instance" xsi:noNamespaceSchemaLocation="http://sumo.dlr.de/xsd/net_file.xsd">

    <location netOffset="0.00,0.00" convBoundary="-124.01,8.03,42.52,129.92" origBoundary="-10000000000.00,-10000000000.00,10000000000.00,10000000000.00" projParameter="!"/>

    <edge id=":R1_0" function="internal">
        <lane id=":R1_0_0" index="0" speed="7.58" length="7.64" shape="-43.58,80.15 -45.00,78.22 -46.46,76.86 -47.95,76.07 -49.49,75.85"/>
    </edge>
    <edge id=":R1_1" function="internal">
        <lane id=":R1_1_0" index="0" speed="9.58" length="13.01" shape="-43.58,80.15 -45.13,76.99 -45.75,73.88 -45.45,70.82 -44.22,67.82"/>
    </edge>
    <edge id=":R1_2" function="internal">
        <lane id=":R1_2_0" index="0" speed="7.74" length="7.53" shape="-49.63,72.65 -48.27,72.31 -46.91,71.38 -45.56,69.89 -44.22,67.82"/>
    </edge>
    <edge id=":R2_0" function="internal">
        <lane id=":R2_0_0" index="0" speed="7.78" length="8.43" shape="-12.55,59.67 -13.57,61.51 -13.99,63.45 -13.81,65.50 -13.04,67.65"/>
    </edge>
    <edge id=":R2_1" function="internal">
        <lane id=":R2_1_0" index="0" speed="8.12" length="8.35" shape="-27.68,56.98 -25.37,56.93 -23.37,56.41 -21.67,55.43 -20.28,53.98"/>
        <lane id=":R2_1_1" index="1" speed="8.94" length="10.24" shape="-27.68,56.98 -23.79,57.15 -20.84,57.02 -18.81,56.60 -17.71,55.88"/>
    </edge>
    <edge id=":R2_3" function="internal">
        <lane id=":R2_3_0" index="0" speed="11.73" length="19.02" shape="-27.68,56.98 -23.09,57.91 -19.13,60.00 -15.77,63.25 -13.04,67.65"/>
    </edge>
    <edge id=":R3_0" function="internal">
        <lane id=":R3_0_0" index="0" speed="7.64" length="7.75" shape="-13.01,87.72 -14.40,86.98 -16.11,86.73 -18.11,86.97 -20.43,87.70"/>
    </edge>
    <edge id=":R3_1" function="internal">
        <lane id=":R3_1_0" index="0" speed="7.51" length="7.82" shape="-12.73,77.97 -12.99,80.34 -12.79,82.34 -12.13,83.96 -11.02,85.22"/>
    </edge>
    <edge id=":R3_2" function="internal">
        <lane id=":R3_2_0" index="0" speed="10.04" length="12.97" shape="-12.73,77.97 -13.73,81.29 -15.35,84.02 -17.58,86.16 -20.43,87.70"/>
    </edge>

    <edge id="E-1" from="R1" to="1" priority="-1">
        <lane id="E-1_0" index="0" speed="13.89" length="74.52" shape="-49.49,75.85 -123.94,79.21"/>
    </edge>
    <edge id="E-2" from="R2" to="2" priority="-1">
        <lane id="E-2_0" index="0" speed="13.89" length="60.58" shape="-20.28,53.98 15.62,5.19"/>
        <lane id="E-2_1" index="1" speed="13.89" length="60.58" shape="-17.71,55.88 18.20,7.08"/>
    </edge>
    <edge id="E-3" from="R3" to="3" priority="-1">
        <lane id="E-3_0" index="0" speed="13.89" length="69.73" shape="-11.02,85.22 43.52,128.67"/>
    </edge>
    <edge id="E1" from="1" to="R1" priority="-1">
        <lane id="E1_0" index="0" speed="13.89" length="74.52" shape="-124.08,76.01 -49.63,72.65"/>
    </edge>
    <edge id="E2" from="2" to="R2" priority="-1">
        <lane id="E2_0" index="0" speed="13.89" length="60.58" shape="23.36,10.87 -12.55,59.67"/>
        <lane id="E2_1" index="1" speed="13.89" length="60.58" shape="20.78,8.98 -15.13,57.78"/>
    </edge>
    <edge id="E3" from="3" to="R3" priority="-1">
        <lane id="E3_0" index="0" speed="13.89" length="69.73" shape="41.52,131.17 -13.01,87.72"/>
    </edge>
    <edge id="RE1" from="R1" to="R2" priority="-1" shape="-43.52,73.98 -42.73,68.44 -39.96,63.58 -35.61,60.07 -30.27,58.40 -24.69,58.80 -19.65,61.22">
        <lane id="RE1_0" index="0" speed="13.89" length="21.28" shape="-44.22,67.82 -41.20,62.52 -36.38,58.63 -30.46,56.78 -27.68,56.98"/>
    </edge>
    <edge id="RE2" from="R2" to="R3" priority="-1" shape="-19.65,61.22 -16.28,64.65 -14.18,68.97 -13.54,73.74 -14.45,78.46 -16.81,82.65">
        <lane id="RE2_0" index="0" speed="13.89" length="10.54" shape="-13.04,67.65 -12.63,68.50 -11.92,73.79 -12.73,77.97"/>
    </edge>
    <edge id="RE3" from="R3" to="R1" priority="-1" shape="-16.81,82.65 -20.67,86.08 -25.48,87.99 -30.64,88.15 -35.56,86.56 -39.64,83.39 -42.40,79.02 -43.52,73.98">
        <lane id="RE3_0" index="0" speed="13.89" length="27.38" shape="-20.43,87.70 -25.15,89.58 -30.87,89.76 -36.32,88.00 -40.84,84.48 -43.58,80.15"/>
    </edge>

    <junction id="1" type="dead_end" x="-124.01" y="77.61" incLanes="E-1_0" intLanes="" shape="-124.01,77.61 -123.87,80.81 -124.01,77.61"/>
    <junction id="2" type="dead_end" x="19.49" y="8.03" incLanes="E-2_0 E-2_1" intLanes="" shape="19.49,8.03 14.34,4.24 19.49,8.03"/>
    <junction id="3" type="dead_end" x="42.52" y="129.92" incLanes="E-3_0" intLanes="" shape="42.52,129.92 44.51,127.42 42.52,129.92"/>
    <junction id="R1" type="priority" x="-43.52" y="73.98" incLanes="RE3_0 E1_0" intLanes=":R1_0_0 :R1_1_0 :R1_2_0" shape="-45.23,80.53 -41.93,79.77 -43.00,77.76 -43.69,75.78 -43.98,73.82 -43.89,71.89 -43.40,69.97 -42.52,68.08 -45.84,67.58 -46.48,69.44 -47.04,70.11 -47.77,70.60 -48.66,70.92 -49.71,71.06 -49.42,77.45 -47.98,77.75 -47.28,78.17 -46.59,78.78 -45.90,79.56">
        <request index="0" response="000" foes="000" cont="0"/>
        <request index="1" response="000" foes="100" cont="0"/>
        <request index="2" response="010" foes="010" cont="0"/>
    </junction>
    <junction id="R2" type="priority" x="-19.65" y="61.22" incLanes="E2_0 E2_1 RE1_0" intLanes=":R2_0_0 :R2_1_0 :R2_1_1 :R2_3_0" shape="-14.25,68.82 -11.83,66.48 -12.43,64.47 -12.43,63.48 -12.24,62.51 -11.85,61.56 -11.26,60.62 -21.57,53.03 -23.04,54.47 -23.89,54.95 -24.83,55.27 -25.85,55.43 -26.96,55.43 -28.41,58.53 -25.38,59.01 -22.62,59.98 -20.13,61.45 -17.90,63.41 -15.94,65.87">
        <request index="0" response="1000" foes="1000" cont="0"/>
        <request index="1" response="0000" foes="0000" cont="0"/>
        <request index="2" response="0000" foes="0000" cont="0"/>
        <request index="3" response="0000" foes="0001" cont="0"/>
    </junction>
    <junction id="R3" type="priority" x="-16.81" y="82.65" incLanes="E3_0 RE2_0" intLanes=":R3_0_0 :R3_1_0 :R3_2_0" shape="-14.01,88.97 -10.02,83.97 -11.02,82.71 -11.30,81.90 -11.43,80.98 -11.41,79.94 -11.25,78.79 -14.20,77.16 -14.77,79.33 -15.60,81.25 -16.70,82.92 -18.05,84.33 -19.67,85.50 -21.54,86.43 -19.31,88.98 -17.15,88.36 -16.21,88.28 -15.38,88.35 -14.64,88.59">
        <request index="0" response="100" foes="100" cont="0"/>
        <request index="1" response="000" foes="000" cont="0"/>
        <request index="2" response="000" foes="001" cont="0"/>
    </junction>

    <connection from="E1" to="RE1" fromLane="0" toLane="0" via=":R1_2_0" dir="r" state="m" visibility="9.00"/>
    <connection from="E2" to="RE2" fromLane="0" toLane="0" via=":R2_0_0" dir="r" state="m" visibility="9.00"/>
    <connection from="E3" to="RE3" fromLane="0" toLane="0" via=":R3_0_0" dir="r" state="m" visibility="9.00"/>
    <connection from="RE1" to="E-2" fromLane="0" toLane="0" via=":R2_1_0" dir="r" state="M"/>
    <connection from="RE1" to="E-2" fromLane="0" toLane="1" via=":R2_1_1" dir="r" state="M"/>
    <connection from="RE1" to="RE2" fromLane="0" toLane="0" via=":R2_3_0" dir="s" state="M"/>
    <connection from="RE2" to="E-3" fromLane="0" toLane="0" via=":R3_1_0" dir="r" state="M"/>
    <connection from="RE2" to="RE3" fromLane="0" toLane="0" via=":R3_2_0" dir="s" state="M"/>
    <connection from="RE3" to="E-1" fromLane="0" toLane="0" via=":R1_0_0" dir="r" state="M"/>
    <connection from="RE3" to="RE1" fromLane="0" toLane="0" via=":R1_1_0" dir="s" state="M"/>

    <connection from=":R1_0" to="E-1" fromLane="0" toLane="0" dir="r" state="M"/>
    <connection from=":R1_1" to="RE1" fromLane="0" toLane="0" dir="s" state="M"/>
    <connection from=":R1_2" to="RE1" fromLane="0" toLane="0" dir="r" state="M"/>
    <connection from=":R2_0" to="RE2" fromLane="0" toLane="0" dir="r" state="M"/>
    <connection from=":R2_1" to="E-2" fromLane="0" toLane="0" dir="r" state="M"/>
    <connection from=":R2_1" to="E-2" fromLane="1" toLane="1" dir="r" state="M"/>
    <connection from=":R2_3" to="RE2" fromLane="0" toLane="0" dir="s" state="M"/>
    <connection from=":R3_0" to="RE3" fromLane="0" toLane="0" dir="r" state="M"/>
    <connection from=":R3_1" to="E-3" fromLane="0" toLane="0" dir="r" state="M"/>
    <connection from=":R3_2" to="RE3" fromLane="0" toLane="0" dir="s" state="M"/>

    <roundabout nodes="R1 R2 R3" edges="RE1 RE2 RE3"/>

</net>
