<routes>
    <vType id="agenttype" accel="4.0" emergencyDecel="7.0" sigma="0" length="5" maxspeed="30" color="red"/>

    <vType id="npctype" accel="0.8" sigma="0.5" length="5"/>

    <vehicle id="ego" type="agenttype" depart="0">
        <route edges="E1 E-1"/>
    </vehicle>

    <vehicle id="npc0" type="npctype" depart="0">
        <route edges="E2 E-3"/>
    </vehicle>

    <vehicle id="npc1" type="npctype" depart="2">
        <route edges="RE2 E-1"/>
    </vehicle>

    <vehicle id="npc2" type="npctype" depart="3">
        <route edges="E1 E-2"/>
    </vehicle>

    <vehicle id="npc3" type="npctype" depart="4">
        <route edges="E2 E-2"/>
    </vehicle>

    <vehicle id="npc4" type="npctype" depart="5">
        <route edges="E1 E-1"/>
    </vehicle>

    <vehicle id="npc5" type="npctype" depart="8">
        <route edges="RE2 E-2"/>
    </vehicle>

    <vehicle id="npc6" type="npctype" depart="9">
        <route edges="RE2 E-1"/>
    </vehicle>

    <vehicle id="npc7" type="npctype" depart="12">
        <route edges="RE1 E-3"/>
    </vehicle>

    <vehicle id="npc8" type="npctype" depart="13">
        <route edges="E2 E-3"/>
    </vehicle>

    <vehicle id="npc9" type="npctype" depart="14">
        <route edges="E1 E-3"/>
    </vehicle>

</routes>
