<routes>
    <!--- vehicle assuming standard Krauss hypothesis !-->
    <vType id="type1" accel="0.8" sigma="0.5" length="5" maxspeed="70"/>

    <!--- vehicle calibrated for manual control !-->
    <vType id="agenttype" accel="4.0" emergencyDecel="7.0" sigma="0" length="5" maxspeed="100" color="red"/>

    <vehicle id="npc1" type="type1" depart="0">
        <route edges="E1 RE1 RE2 E-3"/>
    </vehicle>

    <vehicle id="agent" type="agenttype" depart="0">
        <route edges="E2"/>
    </vehicle>
</routes>