<?xml version="1.0" encoding="UTF-8"?>

<!-- generated on 2022-07-29 12:28:56 by Eclipse SUMO netedit Version v1_14_1+0076-c68646acd3a
<configuration xmlns:xsi="http://www.w3.org/2001/XMLSchema-instance" xsi:noNamespaceSchemaLocation="http://sumo.dlr.de/xsd/netconvertConfiguration.xsd">

    <input>
        <sumo-net-file value="twolane.net.xml"/>
    </input>

    <output>
        <output-file value="twolane.net.xml"/>
    </output>

    <processing>
        <geometry.min-radius.fix.railways value="false"/>
        <geometry.max-grade.fix value="false"/>
        <offset.disable-normalization value="true"/>
        <lefthand value="false"/>
    </processing>

    <junctions>
        <no-turnarounds value="true"/>
        <junctions.corner-detail value="5"/>
        <junctions.limit-turn-speed value="5.5"/>
        <rectangular-lane-cut value="false"/>
    </junctions>

    <pedestrian>
        <walkingareas value="false"/>
    </pedestrian>

</configuration>
-->

<net version="1.9" junctionCornerDetail="5" limitTurnSpeed="5.50" xmlns:xsi="http://www.w3.org/2001/XMLSchema-instance" xsi:noNamespaceSchemaLocation="http://sumo.dlr.de/xsd/net_file.xsd">

    <location netOffset="0.00,0.00" convBoundary="-124.01,8.03,42.52,129.92" origBoundary="-10000000000.00,-10000000000.00,10000000000.00,10000000000.00" projParameter="!"/>

    <edge id=":R1_0" function="internal">
        <lane id=":R1_0_0" index="0" speed="6.54" length="7.93" shape="-47.02,80.37 -47.76,78.38 -48.96,76.98 -50.62,76.19 -52.73,76.00"/>
    </edge>
    <edge id=":R1_1" function="internal">
        <lane id=":R1_1_0" index="0" speed="13.89" length="12.14" shape="-47.02,80.37 -47.79,76.74 -48.10,74.19 -47.99,71.63 -47.51,67.95"/>
        <lane id=":R1_1_1" index="1" speed="12.25" length="12.14" shape="-43.88,79.67 -45.34,76.68 -45.54,74.34 -45.03,71.85 -44.34,68.40"/>
    </edge>
    <edge id=":R1_3" function="internal">
        <lane id=":R1_3_0" index="0" speed="6.59" length="7.96" shape="-52.88,72.80 -50.78,72.42 -49.18,71.48 -48.09,69.99 -47.51,67.95"/>
    </edge>
    <edge id=":R2_0" function="internal">
        <lane id=":R2_0_0" index="0" speed="7.42" length="7.60" shape="-12.81,54.62 -13.45,56.00 -13.59,57.66 -13.20,59.62 -12.30,61.86"/>
    </edge>
    <edge id=":R2_1" function="internal">
        <lane id=":R2_1_0" index="0" speed="6.63" length="8.06" shape="-22.49,54.53 -20.45,55.19 -18.58,55.10 -16.89,54.28 -15.38,52.72"/>
    </edge>
    <edge id=":R2_2" function="internal">
        <lane id=":R2_2_0" index="0" speed="13.39" length="12.41" shape="-22.49,54.53 -18.90,56.03 -16.30,57.10 -14.25,58.71 -12.30,61.86"/>
        <lane id=":R2_2_1" index="1" speed="12.78" length="12.41" shape="-23.87,57.42 -20.63,58.80 -18.30,59.81 -16.48,61.33 -14.72,64.20"/>
    </edge>
    <edge id=":R3_0" function="internal">
        <lane id=":R3_0_0" index="0" speed="6.58" length="8.03" shape="-10.48,89.74 -12.33,88.64 -14.17,88.30 -15.98,88.72 -17.76,89.92"/>
    </edge>
    <edge id=":R3_1" function="internal">
        <lane id=":R3_1_0" index="0" speed="7.42" length="7.61" shape="-9.88,80.12 -10.17,82.52 -10.03,84.50 -9.47,86.08 -8.48,87.24"/>
    </edge>
    <edge id=":R3_2" function="internal">
        <lane id=":R3_2_0" index="0" speed="13.68" length="12.50" shape="-9.88,80.12 -10.95,83.67 -12.51,85.77 -14.72,87.49 -17.76,89.92"/>
        <lane id=":R3_2_1" index="1" speed="9.66" length="12.50" shape="-12.83,78.48 -13.75,81.57 -15.24,84.10 -17.29,86.07 -19.90,87.50"/>
    </edge>

    <edge id="E-1" from="R1" to="1" priority="-1">
        <lane id="E-1_0" index="0" speed="13.89" length="71.28" shape="-52.73,76.00 -123.94,79.21"/>
    </edge>
    <edge id="E-2" from="R2" to="2" priority="-1">
        <lane id="E-2_0" index="0" speed="13.89" length="56.67" shape="-15.38,52.72 18.20,7.08"/>
    </edge>
    <edge id="E-3" from="R3" to="3" priority="-1">
        <lane id="E-3_0" index="0" speed="13.89" length="66.48" shape="-8.48,87.24 43.52,128.67"/>
    </edge>
    <edge id="E1" from="1" to="R1" priority="-1">
        <lane id="E1_0" index="0" speed="13.89" length="71.28" shape="-124.08,76.01 -52.88,72.80"/>
    </edge>
    <edge id="E2" from="2" to="R2" priority="-1">
        <lane id="E2_0" index="0" speed="13.89" length="56.67" shape="20.78,8.98 -12.81,54.62"/>
    </edge>
    <edge id="E3" from="3" to="R3" priority="-1">
        <lane id="E3_0" index="0" speed="13.89" length="66.48" shape="41.52,131.17 -10.48,89.74"/>
    </edge>
    <edge id="RE1" from="R1" to="R2" priority="-1" shape="-43.52,73.98 -42.73,68.44 -39.96,63.58 -35.61,60.07 -30.27,58.40 -24.69,58.80 -19.65,61.22">
        <lane id="RE1_0" index="0" speed="13.89" length="28.78" shape="-47.51,67.95 -47.35,66.86 -43.68,60.41 -37.91,55.76 -30.83,53.55 -23.44,54.08 -22.49,54.53"/>
        <lane id="RE1_1" index="1" speed="13.89" length="28.78" shape="-44.34,68.40 -44.27,67.91 -41.20,62.52 -36.38,58.63 -30.46,56.78 -24.27,57.23 -23.87,57.42"/>
    </edge>
    <edge id="RE2" from="R2" to="R3" priority="-1" shape="-19.65,61.22 -16.28,64.65 -14.18,68.97 -13.54,73.74 -14.45,78.46 -16.81,82.65">
        <lane id="RE2_0" index="0" speed="13.89" length="16.98" shape="-12.30,61.86 -9.53,67.57 -8.68,73.88 -9.88,80.12"/>
        <lane id="RE2_1" index="1" speed="13.89" length="16.98" shape="-14.72,64.20 -12.63,68.50 -11.92,73.79 -12.83,78.48"/>
    </edge>
    <edge id="RE3" from="R3" to="R1" priority="-1" shape="-16.81,82.65 -20.67,86.08 -25.48,87.99 -30.64,88.15 -35.56,86.56 -39.64,83.39 -42.40,79.02 -43.52,73.98">
        <lane id="RE3_0" index="0" speed="13.89" length="31.87" shape="-17.76,89.92 -18.11,90.23 -24.49,92.76 -31.32,92.97 -37.84,90.87 -43.25,86.66 -46.90,80.88 -47.02,80.37"/>
        <lane id="RE3_1" index="1" speed="13.89" length="31.87" shape="-19.90,87.50 -25.15,89.58 -30.87,89.76 -36.32,88.00 -40.84,84.48 -43.88,79.67"/>
    </edge>

    <junction id="1" type="dead_end" x="-124.01" y="77.61" incLanes="E-1_0" intLanes="" shape="-124.01,77.61 -123.87,80.81 -124.01,77.61"/>
    <junction id="2" type="dead_end" x="19.49" y="8.03" incLanes="E-2_0" intLanes="" shape="19.49,8.03 16.91,6.13 19.49,8.03"/>
    <junction id="3" type="dead_end" x="42.52" y="129.92" incLanes="E-3_0" intLanes="" shape="42.52,129.92 44.51,127.42 42.52,129.92"/>
    <junction id="R1" type="priority" x="-43.52" y="73.98" incLanes="RE3_0 RE3_1 E1_0" intLanes=":R1_0_0 :R1_1_0 :R1_1_1 :R1_3_0" shape="-48.58,80.72 -42.23,79.29 -43.31,77.30 -43.80,75.70 -43.84,74.25 -43.59,72.74 -43.18,70.94 -42.76,68.63 -49.09,67.72 -49.73,69.59 -50.29,70.26 -51.02,70.75 -51.90,71.06 -52.95,71.20 -52.66,77.60 -50.72,77.88 -49.96,78.30 -49.36,78.92 -48.89,79.73">
        <request index="0" response="0000" foes="0000" cont="0"/>
        <request index="1" response="0000" foes="1000" cont="0"/>
        <request index="2" response="0000" foes="0000" cont="0"/>
        <request index="3" response="0010" foes="0010" cont="0"/>
    </junction>
    <junction id="R2" type="priority" x="-19.65" y="61.22" incLanes="E2_0 RE1_0 RE1_1" intLanes=":R2_0_0 :R2_1_0 :R2_2_0 :R2_2_1" shape="-15.93,65.38 -11.15,60.74 -12.25,59.09 -12.43,58.23 -12.37,57.36 -12.07,56.47 -11.52,55.57 -16.67,51.77 -18.15,53.16 -18.98,53.50 -19.86,53.60 -20.80,53.46 -21.80,53.09 -24.57,58.86 -22.40,59.82 -20.68,60.51 -19.30,61.17 -18.13,62.04 -17.05,63.37">
        <request index="0" response="0100" foes="0100" cont="0"/>
        <request index="1" response="0000" foes="0000" cont="0"/>
        <request index="2" response="0000" foes="0001" cont="0"/>
        <request index="3" response="0000" foes="0000" cont="0"/>
    </junction>
    <junction id="R3" type="priority" x="-16.81" y="82.65" incLanes="E3_0 RE2_0 RE2_1" intLanes=":R3_0_0 :R3_1_0 :R3_2_0 :R3_2_1" shape="-11.47,90.99 -7.48,85.99 -8.78,84.48 -9.07,83.65 -9.11,82.78 -8.91,81.86 -8.48,80.90 -14.30,77.67 -14.83,79.67 -15.59,81.45 -16.59,82.99 -17.83,84.30 -19.31,85.38 -21.02,86.22 -16.70,91.12 -14.99,90.10 -14.12,89.96 -13.25,90.06 -12.36,90.40">
        <request index="0" response="0100" foes="0100" cont="0"/>
        <request index="1" response="0000" foes="0000" cont="0"/>
        <request index="2" response="0000" foes="0001" cont="0"/>
        <request index="3" response="0000" foes="0000" cont="0"/>
    </junction>

    <connection from="E1" to="RE1" fromLane="0" toLane="0" via=":R1_3_0" dir="r" state="m" visibility="9.00"/>
    <connection from="E2" to="RE2" fromLane="0" toLane="0" via=":R2_0_0" dir="r" state="m" visibility="9.00"/>
    <connection from="E3" to="RE3" fromLane="0" toLane="0" via=":R3_0_0" dir="r" state="m" visibility="9.00"/>
    <connection from="RE1" to="E-2" fromLane="0" toLane="0" via=":R2_1_0" dir="r" state="M"/>
    <connection from="RE1" to="RE2" fromLane="0" toLane="0" via=":R2_2_0" dir="s" state="M"/>
    <connection from="RE1" to="RE2" fromLane="1" toLane="1" via=":R2_2_1" dir="s" state="M"/>
    <connection from="RE2" to="E-3" fromLane="0" toLane="0" via=":R3_1_0" dir="r" state="M"/>
    <connection from="RE2" to="RE3" fromLane="0" toLane="0" via=":R3_2_0" dir="s" state="M"/>
    <connection from="RE2" to="RE3" fromLane="1" toLane="1" via=":R3_2_1" dir="s" state="M"/>
    <connection from="RE3" to="E-1" fromLane="0" toLane="0" via=":R1_0_0" dir="r" state="M"/>
    <connection from="RE3" to="RE1" fromLane="0" toLane="0" via=":R1_1_0" dir="s" state="M"/>
    <connection from="RE3" to="RE1" fromLane="1" toLane="1" via=":R1_1_1" dir="s" state="M"/>

    <connection from=":R1_0" to="E-1" fromLane="0" toLane="0" dir="r" state="M"/>
    <connection from=":R1_1" to="RE1" fromLane="0" toLane="0" dir="s" state="M"/>
    <connection from=":R1_1" to="RE1" fromLane="1" toLane="1" dir="s" state="M"/>
    <connection from=":R1_3" to="RE1" fromLane="0" toLane="0" dir="r" state="M"/>
    <connection from=":R2_0" to="RE2" fromLane="0" toLane="0" dir="r" state="M"/>
    <connection from=":R2_1" to="E-2" fromLane="0" toLane="0" dir="r" state="M"/>
    <connection from=":R2_2" to="RE2" fromLane="0" toLane="0" dir="s" state="M"/>
    <connection from=":R2_2" to="RE2" fromLane="1" toLane="1" dir="s" state="M"/>
    <connection from=":R3_0" to="RE3" fromLane="0" toLane="0" dir="r" state="M"/>
    <connection from=":R3_1" to="E-3" fromLane="0" toLane="0" dir="r" state="M"/>
    <connection from=":R3_2" to="RE3" fromLane="0" toLane="0" dir="s" state="M"/>
    <connection from=":R3_2" to="RE3" fromLane="1" toLane="1" dir="s" state="M"/>

    <roundabout nodes="R1 R2 R3" edges="RE1 RE2 RE3"/>

</net>
