<routes>
    <vType id="agenttype" accel="4.0" emergencyDecel="7.0" sigma="0" length="5" maxspeed="30" color="red"/>

    <vType id="npctype" accel="0.8" sigma="0.5" length="5"/>

    <vehicle id="ego" type="agenttype" depart="0">
        <route edges="E1 E-3"/>
    </vehicle>

    <vehicle id="npc0" type="npctype" depart="1">
        <route edges="RE1 E-3"/>
        <param key="has.ssm.device" value="true"/>
        <param key="device.ssm.measures" value="DRAC"/>
    </vehicle>

    <vehicle id="npc1" type="npctype" depart="10">
        <route edges="E3 E-3"/>
        <param key="has.ssm.device" value="true"/>
        <param key="device.ssm.measures" value="DRAC"/>
    </vehicle>

    <vehicle id="npc2" type="npctype" depart="14">
        <route edges="RE2 E-2"/>
        <param key="has.ssm.device" value="true"/>
        <param key="device.ssm.measures" value="DRAC"/>
    </vehicle>

    <vehicle id="npc3" type="npctype" depart="15">
        <route edges="E1 E-2"/>
        <param key="has.ssm.device" value="true"/>
        <param key="device.ssm.measures" value="DRAC"/>
    </vehicle>

</routes>
