<routes>
    <vType id="agenttype" accel="4.0" emergencyDecel="7.0" sigma="0" length="5" maxspeed="30" color="red"/>

    <vType id="npctype" accel="0.8" sigma="0.5" length="5"/>

    <vehicle id="agent" type="agenttype" depart="0">
        <route edges="E7.15 -E6.14"/>
    </vehicle>

    <vehicle id="npc0" type="npctype" depart="11">
        <route edges="E8 -E8.15"/>
    </vehicle>

    <vehicle id="npc1" type="npctype" depart="7">
        <route edges="E9 -E7.15"/>
    </vehicle>

    <vehicle id="npc2" type="npctype" depart="17">
        <route edges="E7.15 -E8.15"/>
    </vehicle>

    <vehicle id="npc3" type="npctype" depart="4">
        <route edges="E6.14 -E6.14"/>
    </vehicle>

</routes>
