<?xml version="1.0" encoding="UTF-8"?>

<!-- generated on 2022-05-09 17:42:34 by Eclipse SUMO netedit Version 1.13.0
<configuration xmlns:xsi="http://www.w3.org/2001/XMLSchema-instance" xsi:noNamespaceSchemaLocation="http://sumo.dlr.de/xsd/netconvertConfiguration.xsd">

    <input>
        <sumo-net-file value="unrealistic.net.xml"/>
    </input>

    <output>
        <output-file value="unrealistic.net.xml"/>
    </output>

    <processing>
        <geometry.min-radius.fix.railways value="false"/>
        <geometry.max-grade.fix value="false"/>
        <offset.disable-normalization value="true"/>
        <lefthand value="false"/>
    </processing>

    <junctions>
        <no-turnarounds value="true"/>
        <junctions.corner-detail value="5"/>
        <junctions.limit-turn-speed value="5.5"/>
        <rectangular-lane-cut value="false"/>
    </junctions>

    <pedestrian>
        <walkingareas value="false"/>
    </pedestrian>

    <report>
        <aggregate-warnings value="5"/>
    </report>

</configuration>
-->

<net version="1.9" junctionCornerDetail="5" limitTurnSpeed="5.50" xmlns:xsi="http://www.w3.org/2001/XMLSchema-instance" xsi:noNamespaceSchemaLocation="http://sumo.dlr.de/xsd/net_file.xsd">

    <location netOffset="0.00,0.00" convBoundary="-90.07,-14.33,225.00,184.56" origBoundary="-10000000000.00,-10000000000.00,10000000000.00,10000000000.00" projParameter="!"/>

    <edge id=":4_0" function="internal">
        <lane id=":4_0_0" index="0" speed="13.89" length="14.43" shape="110.33,131.01 100.12,141.21"/>
    </edge>
    <edge id=":4_1" function="internal">
        <lane id=":4_1_0" index="0" speed="8.42" length="3.88" shape="110.33,131.01 107.33,133.21 107.18,133.25"/>
    </edge>
    <edge id=":4_6" function="internal">
        <lane id=":4_6_0" index="0" speed="8.42" length="10.51" shape="107.18,133.25 104.18,133.98 100.87,133.33 97.40,131.25"/>
    </edge>
    <edge id=":4_2" function="internal">
        <lane id=":4_2_0" index="0" speed="7.01" length="9.66" shape="99.38,128.74 101.75,130.17 103.98,130.65 106.09,130.17 108.08,128.74"/>
    </edge>
    <edge id=":4_3" function="internal">
        <lane id=":4_3_0" index="0" speed="7.81" length="14.66" shape="99.38,128.74 102.20,131.70 103.26,134.77 102.57,137.93 100.12,141.21"/>
    </edge>
    <edge id=":4_4" function="internal">
        <lane id=":4_4_0" index="0" speed="6.27" length="9.04" shape="97.86,138.95 99.37,136.93 99.79,134.97 99.14,133.08 97.40,131.25"/>
    </edge>
    <edge id=":4_5" function="internal">
        <lane id=":4_5_0" index="0" speed="13.89" length="14.44" shape="97.86,138.95 108.08,128.74"/>
    </edge>
    <edge id=":R1_0" function="internal">
        <lane id=":R1_0_0" index="0" speed="7.16" length="8.75" shape="-12.85,90.10 -15.05,89.21 -17.12,89.07 -19.06,89.67 -20.88,91.03"/>
        <lane id=":R1_0_1" index="1" speed="7.96" length="11.01" shape="-12.85,90.10 -16.28,88.45 -19.13,87.68 -21.42,87.78 -23.13,88.75"/>
    </edge>
    <edge id=":R1_2" function="internal">
        <lane id=":R1_2_0" index="0" speed="13.89" length="16.00" shape="-12.85,90.10 -17.04,87.56 -19.65,85.41 -21.89,82.82 -24.95,78.94"/>
        <lane id=":R1_2_1" index="1" speed="13.89" length="16.00" shape="-10.77,87.60 -14.81,85.17 -17.34,83.13 -19.51,80.66 -22.46,76.93"/>
        <lane id=":R1_2_2" index="2" speed="13.89" length="16.00" shape="-8.68,85.10 -12.57,82.78 -15.02,80.84 -17.12,78.49 -19.97,74.93"/>
    </edge>
    <edge id=":R1_5" function="internal">
        <lane id=":R1_5_0" index="0" speed="6.53" length="8.42" shape="-25.38,86.47 -23.99,84.66 -23.46,82.81 -23.78,80.90 -24.95,78.94"/>
    </edge>
    <edge id=":R2_0" function="internal">
        <lane id=":R2_0_0" index="0" speed="7.19" length="8.71" shape="-26.29,29.12 -24.30,30.12 -22.29,30.38 -20.28,29.89 -18.25,28.65"/>
        <lane id=":R2_0_1" index="1" speed="8.78" length="13.38" shape="-28.11,31.76 -25.11,33.23 -22.06,33.55 -18.94,32.73 -15.76,30.76"/>
    </edge>
    <edge id=":R2_2" function="internal">
        <lane id=":R2_2_0" index="0" speed="6.52" length="8.40" shape="-28.20,41.72 -27.39,39.59 -27.41,37.67 -28.25,35.93 -29.93,34.39"/>
    </edge>
    <edge id=":R2_3" function="internal">
        <lane id=":R2_3_0" index="0" speed="13.89" length="15.99" shape="-28.20,41.72 -25.88,37.36 -24.15,34.40 -21.96,31.83 -18.25,28.65"/>
        <lane id=":R2_3_1" index="1" speed="13.89" length="15.99" shape="-25.40,43.27 -23.15,39.09 -21.47,36.26 -19.34,33.81 -15.76,30.76"/>
        <lane id=":R2_3_2" index="2" speed="13.89" length="15.99" shape="-22.60,44.81 -20.43,40.81 -18.79,38.12 -16.72,35.79 -13.27,32.87"/>
    </edge>
    <edge id=":R3_0" function="internal">
        <lane id=":R3_0_0" index="0" speed="7.04" length="8.59" shape="45.01,38.65 43.34,40.08 42.37,41.81 42.09,43.83 42.51,46.16"/>
        <lane id=":R3_0_1" index="1" speed="8.62" length="13.30" shape="43.30,35.95 40.78,38.13 39.32,40.81 38.94,43.98 39.62,47.64"/>
    </edge>
    <edge id=":R3_2" function="internal">
        <lane id=":R3_2_0" index="0" speed="7.12" length="8.54" shape="32.03,29.61 34.00,30.94 35.97,31.54 37.93,31.41 39.88,30.54"/>
        <lane id=":R3_2_1" index="1" speed="7.94" length="10.81" shape="32.03,29.61 35.06,31.93 37.66,33.31 39.84,33.75 41.59,33.24"/>
    </edge>
    <edge id=":R3_4" function="internal">
        <lane id=":R3_4_0" index="0" speed="13.89" length="19.40" shape="32.03,29.61 36.39,33.58 38.96,36.77 40.69,40.52 42.51,46.16"/>
        <lane id=":R3_4_1" index="1" speed="13.89" length="19.40" shape="29.47,31.62 33.69,35.46 36.18,38.56 37.85,42.19 39.62,47.64"/>
        <lane id=":R3_4_2" index="2" speed="13.89" length="19.40" shape="26.90,33.64 30.98,37.35 33.40,40.34 35.02,43.85 36.73,49.12"/>
    </edge>
    <edge id=":R4_0" function="internal">
        <lane id=":R4_0_0" index="0" speed="6.54" length="8.48" shape="39.15,85.34 37.16,84.18 35.24,83.88 33.38,84.44 31.58,85.87"/>
    </edge>
    <edge id=":R4_1" function="internal">
        <lane id=":R4_1_0" index="0" speed="6.90" length="8.20" shape="39.90,75.35 39.20,77.64 39.17,79.65 39.81,81.38 41.13,82.82"/>
    </edge>
    <edge id=":R4_2" function="internal">
        <lane id=":R4_2_0" index="0" speed="13.89" length="13.01" shape="39.90,75.35 38.14,78.91 36.49,81.10 34.46,83.04 31.58,85.87"/>
        <lane id=":R4_2_1" index="1" speed="13.89" length="13.01" shape="37.18,73.57 35.50,76.99 33.94,79.09 32.01,80.96 29.27,83.66"/>
        <lane id=":R4_2_2" index="2" speed="13.89" length="13.01" shape="34.46,71.80 32.97,75.18 31.66,77.39 29.86,79.22 26.92,81.43"/>
    </edge>
    <edge id=":R5_0" function="internal">
        <lane id=":R5_0_0" index="0" speed="6.55" length="7.85" shape="155.36,92.58 153.48,91.64 151.67,91.44 149.93,91.97 148.25,93.24"/>
    </edge>
    <edge id=":R5_1" function="internal">
        <lane id=":R5_1_0" index="0" speed="11.79" length="12.13" shape="157.17,89.94 154.00,87.93 151.67,86.35 150.05,84.47 149.00,81.57"/>
    </edge>
    <edge id=":R5_2" function="internal">
        <lane id=":R5_2_0" index="0" speed="9.01" length="10.32" shape="145.99,90.97 147.74,88.83 148.82,86.55 149.24,84.13 149.00,81.57"/>
    </edge>
    <edge id=":R6_0" function="internal">
        <lane id=":R6_0_0" index="0" speed="7.55" length="7.72" shape="164.54,53.88 164.93,55.44 165.88,56.88 167.39,58.18 169.47,59.36"/>
    </edge>
    <edge id=":R6_1" function="internal">
        <lane id=":R6_1_0" index="0" speed="7.80" length="7.55" shape="157.11,60.01 159.03,58.42 160.37,56.90 161.15,55.46 161.35,54.08"/>
    </edge>
    <edge id=":R6_2" function="internal">
        <lane id=":R6_2_0" index="0" speed="9.62" length="13.03" shape="157.11,60.01 159.89,58.49 162.88,57.88 166.07,58.17 169.47,59.36"/>
    </edge>
    <edge id=":R7_0" function="internal">
        <lane id=":R7_0_0" index="0" speed="6.60" length="7.97" shape="187.97,69.46 186.03,70.35 184.72,71.66 184.03,73.38 183.97,75.51"/>
    </edge>
    <edge id=":R7_1" function="internal">
        <lane id=":R7_1_0" index="0" speed="8.76" length="10.60" shape="177.11,64.64 179.14,66.11 181.47,66.90 184.10,66.99 187.03,66.40"/>
    </edge>
    <edge id=":R7_2" function="internal">
        <lane id=":R7_2_0" index="0" speed="12.63" length="12.17" shape="177.11,64.64 179.11,67.03 180.06,69.35 180.45,72.11 180.79,75.85"/>
    </edge>

    <edge id="-E0" from="3" to="R3" priority="-1">
        <lane id="-E0_0" index="0" speed="13.89" length="91.47" shape="122.30,-10.27 45.01,38.65"/>
        <lane id="-E0_1" index="1" speed="13.89" length="91.47" shape="120.59,-12.98 43.30,35.95"/>
    </edge>
    <edge id="-E1" from="4" to="R4" priority="-1">
        <lane id="-E1_0" index="0" speed="13.89" length="74.18" shape="97.40,131.25 39.15,85.34"/>
    </edge>
    <edge id="-E17" from="5" to="4" priority="-1">
        <lane id="-E17_0" index="0" speed="13.89" length="62.86" shape="53.45,183.43 97.86,138.95"/>
    </edge>
    <edge id="-E180" from="R5" to="4" priority="-1">
        <lane id="-E180_0" index="0" speed="13.89" length="53.52" shape="148.25,93.24 110.33,131.01"/>
    </edge>
    <edge id="-E19" from="6" to="R6" priority="-1">
        <lane id="-E19_0" index="0" speed="13.89" length="31.44" shape="162.56,22.50 164.54,53.88"/>
    </edge>
    <edge id="-E2" from="1" to="R1" priority="-1">
        <lane id="-E2_0" index="0" speed="13.89" length="68.54" shape="-74.19,134.59 -25.38,86.47"/>
    </edge>
    <edge id="-E21" from="7" to="R7" priority="-1">
        <lane id="-E21_0" index="0" speed="13.89" length="39.21" shape="225.47,58.00 187.97,69.46"/>
    </edge>
    <edge id="-E3" from="2" to="R2" priority="-1">
        <lane id="-E3_0" index="0" speed="13.89" length="74.15" shape="-87.35,-12.95 -26.29,29.12"/>
        <lane id="-E3_1" index="1" speed="13.89" length="74.15" shape="-89.16,-10.32 -28.11,31.76"/>
    </edge>
    <edge id="E00" from="R3" to="3" priority="-1">
        <lane id="E00_0" index="0" speed="13.89" length="91.47" shape="39.88,30.54 117.16,-18.39"/>
        <lane id="E00_1" index="1" speed="13.89" length="91.47" shape="41.59,33.24 118.87,-15.68"/>
    </edge>
    <edge id="E10" from="R4" to="4" priority="-1">
        <lane id="E10_0" index="0" speed="13.89" length="74.18" shape="41.13,82.82 99.38,128.74"/>
    </edge>
    <edge id="E13" from="R3" to="R4" priority="-1" shape="31.70,41.40 34.11,46.09 35.68,51.13 36.33,56.36 36.06,61.62 34.87,66.76 32.80,71.61 29.91,76.02">
        <lane id="E13_0" index="0" speed="13.89" length="26.73" shape="42.51,46.16 43.53,49.43 44.36,56.07 44.01,62.74 42.50,69.25 39.90,75.35"/>
        <lane id="E13_1" index="1" speed="13.89" length="26.73" shape="39.62,47.64 40.39,50.11 41.15,56.19 40.83,62.29 39.45,68.25 37.18,73.57"/>
        <lane id="E13_2" index="2" speed="13.89" length="26.73" shape="36.73,49.12 37.25,50.79 37.94,56.30 37.65,61.84 36.40,67.26 34.46,71.80"/>
    </edge>
    <edge id="E14" from="R2" to="R3" priority="-1" shape="-18.35,40.43 -14.53,35.91 -9.90,32.24 -4.64,29.54 1.04,27.93 6.94,27.46 12.81,28.16 18.42,29.99 23.58,32.89 28.06,36.75 31.70,41.40">
        <lane id="E14_0" index="0" speed="13.89" length="49.43" shape="-18.25,28.65 -14.25,25.48 -7.59,22.06 -0.38,20.02 7.10,19.42 14.54,20.31 21.65,22.63 28.20,26.31 32.03,29.61"/>
        <lane id="E14_1" index="1" speed="13.89" length="49.43" shape="-15.76,30.76 -12.51,28.19 -6.41,25.05 0.19,23.18 7.03,22.64 13.85,23.45 20.36,25.57 26.35,28.94 29.47,31.62"/>
        <lane id="E14_2" index="2" speed="13.89" length="49.43" shape="-13.27,32.87 -10.77,30.89 -5.23,28.04 0.76,26.35 6.97,25.85 13.16,26.59 19.07,28.52 24.50,31.57 26.90,33.64"/>
    </edge>
    <edge id="E15" from="R1" to="R2" priority="-1" shape="-15.02,78.51 -18.73,73.91 -21.47,68.67 -23.13,63.00 -23.65,57.11 -23.00,51.24 -21.21,45.60 -18.35,40.43">
        <lane id="E15_0" index="0" speed="13.89" length="35.29" shape="-24.95,78.94 -25.45,78.32 -28.93,71.68 -31.03,64.49 -31.69,57.02 -30.86,49.57 -28.59,42.42 -28.20,41.72"/>
        <lane id="E15_1" index="1" speed="13.89" length="35.29" shape="-22.46,76.93 -22.76,76.55 -25.94,70.47 -27.87,63.89 -28.47,57.06 -27.72,50.24 -25.64,43.69 -25.40,43.27"/>
        <lane id="E15_2" index="2" speed="13.89" length="35.29" shape="-19.97,74.93 -20.07,74.79 -22.96,69.27 -24.71,63.30 -25.26,57.09 -24.57,50.91 -22.69,44.96 -22.60,44.81"/>
    </edge>
    <edge id="E16" from="R4" to="R1" priority="-1" shape="29.91,76.02 26.02,80.11 21.43,83.39 16.30,85.76 10.82,87.12 5.18,87.43 -0.41,86.68 -5.77,84.90 -10.69,82.14 -15.02,78.51">
        <lane id="E16_0" index="0" speed="13.89" length="42.94" shape="31.58,85.87 31.29,86.18 25.47,90.34 18.96,93.34 12.01,95.07 4.86,95.46 -2.22,94.51 -9.02,92.25 -12.85,90.10"/>
        <lane id="E16_1" index="1" speed="13.89" length="42.94" shape="29.27,83.66 29.18,83.75 23.85,87.56 17.90,90.31 11.54,91.89 4.99,92.25 -1.50,91.38 -7.72,89.31 -10.77,87.60"/>
        <lane id="E16_2" index="2" speed="13.89" length="42.94" shape="26.92,81.43 22.24,84.78 16.83,87.28 11.06,88.71 5.12,89.04 -0.77,88.25 -6.42,86.37 -8.68,85.10"/>
    </edge>
    <edge id="E17" from="4" to="5" priority="-1">
        <lane id="E17_0" index="0" speed="13.89" length="62.86" shape="100.12,141.21 55.71,185.69"/>
    </edge>
    <edge id="E18" from="4" to="R5" priority="-1">
        <lane id="E18_0" index="0" speed="13.89" length="53.52" shape="108.08,128.74 145.99,90.97"/>
    </edge>
    <edge id="E190" from="R6" to="6" priority="-1">
        <lane id="E190_0" index="0" speed="13.89" length="31.44" shape="161.35,54.08 159.36,22.70"/>
    </edge>
    <edge id="E20" from="R1" to="1" priority="-1">
        <lane id="E20_0" index="0" speed="13.89" length="68.54" shape="-20.88,91.03 -69.70,139.15"/>
        <lane id="E20_1" index="1" speed="13.89" length="68.54" shape="-23.13,88.75 -71.95,136.87"/>
    </edge>
    <edge id="E21" from="R6" to="R7" priority="-1" shape="163.33,60.05 168.29,60.57 172.81,62.69 176.39,66.17 178.62,70.64">
        <lane id="E21_0" index="0" speed="13.89" length="9.41" shape="169.47,59.36 173.73,61.36 177.11,64.64"/>
    </edge>
    <edge id="E210" from="R7" to="7" priority="-1">
        <lane id="E210_0" index="0" speed="13.89" length="39.21" shape="187.03,66.40 224.53,54.94"/>
    </edge>
    <edge id="E22" from="R5" to="R6" priority="-1" shape="153.65,85.60 150.47,80.88 149.28,75.32 150.25,69.71 153.24,64.86 157.82,61.48 163.33,60.05">
        <lane id="E22_0" index="0" speed="13.89" length="25.29" shape="149.00,81.57 147.65,75.35 148.73,69.13 152.04,63.76 157.11,60.01"/>
    </edge>
    <edge id="E23" from="R7" to="R5" priority="-1" shape="178.62,70.64 179.22,76.26 177.70,81.71 174.27,86.20 169.42,89.11 163.84,90.01 158.32,88.79 153.65,85.60">
        <lane id="E23_0" index="0" speed="13.89" length="36.19" shape="183.97,75.51 184.09,76.66 182.08,83.89 177.53,89.84 171.10,93.70 163.70,94.89 156.38,93.28 155.36,92.58"/>
        <lane id="E23_1" index="1" speed="13.89" length="36.19" shape="180.79,75.85 180.84,76.39 179.16,82.44 175.36,87.41 169.98,90.64 163.79,91.64 157.67,90.29 157.17,89.94"/>
    </edge>
    <edge id="E30" from="R2" to="2" priority="-1">
        <lane id="E30_0" index="0" speed="13.89" length="74.15" shape="-29.93,34.39 -90.98,-7.68"/>
    </edge>

    <tlLogic id="J3" type="static" programID="0" offset="0">
        <phase duration="42" state="GgsrGG"/>
        <phase duration="3"  state="yysryy"/>
        <phase duration="42" state="rrGGGr"/>
        <phase duration="3"  state="rryyyr"/>
    </tlLogic>

    <junction id="1" type="dead_end" x="-73.07" y="135.73" incLanes="E20_0 E20_1" intLanes="" shape="-73.07,135.73 -68.58,140.29 -73.07,135.73"/>
    <junction id="2" type="dead_end" x="-90.07" y="-9.00" incLanes="E30_0" intLanes="" shape="-90.07,-9.00 -91.89,-6.37 -90.07,-9.00"/>
    <junction id="3" type="dead_end" x="119.73" y="-14.33" incLanes="E00_0 E00_1" intLanes="" shape="119.73,-14.33 116.31,-19.74 119.73,-14.33"/>
    <junction id="4" type="traffic_light_right_on_red" x="104.36" y="134.70" incLanes="-E180_0 E10_0 -E17_0" intLanes=":4_0_0 :4_6_0 :4_2_0 :4_3_0 :4_4_0 :4_5_0" shape="111.46,132.14 106.95,127.61 104.96,128.85 103.89,128.99 102.77,128.81 101.59,128.31 100.37,127.48 96.41,132.51 97.84,134.20 98.06,135.07 97.95,135.97 97.50,136.88 96.73,137.82 101.26,142.34">
        <request index="0" response="000000" foes="001000" cont="0"/>
        <request index="1" response="110000" foes="111000" cont="1"/>
        <request index="2" response="100000" foes="100000" cont="0"/>
        <request index="3" response="100011" foes="100011" cont="0"/>
        <request index="4" response="000000" foes="000010" cont="0"/>
        <request index="5" response="000000" foes="001110" cont="0"/>
    </junction>
    <junction id="5" type="dead_end" x="54.58" y="184.56" incLanes="E17_0" intLanes="" shape="54.58,184.56 56.84,186.82 54.58,184.56"/>
    <junction id="6" type="dead_end" x="160.96" y="22.60" incLanes="E190_0" intLanes="" shape="160.96,22.60 157.77,22.80 160.96,22.60"/>
    <junction id="7" type="dead_end" x="225.00" y="56.47" incLanes="E210_0" intLanes="" shape="225.00,56.47 224.07,53.41 225.00,56.47"/>
    <junction id="R1" type="priority" x="-15.02" y="78.51" incLanes="E16_0 E16_1 E16_2 -E2_0" intLanes=":R1_0_0 :R1_0_1 :R1_2_0 :R1_2_1 :R1_2_2 :R1_5_0" shape="-13.90,91.35 -7.64,83.85 -10.47,82.31 -12.63,81.12 -14.32,79.99 -15.76,78.61 -17.16,76.69 -18.72,73.92 -26.19,79.95 -25.21,81.80 -25.13,82.71 -25.31,83.60 -25.77,84.47 -26.50,85.33 -19.76,92.17 -17.93,90.91 -16.97,90.65 -15.97,90.64 -14.95,90.87">
        <request index="0" response="000000" foes="000000" cont="0"/>
        <request index="1" response="000000" foes="000000" cont="0"/>
        <request index="2" response="000000" foes="100000" cont="0"/>
        <request index="3" response="000000" foes="000000" cont="0"/>
        <request index="4" response="000000" foes="000000" cont="0"/>
        <request index="5" response="000100" foes="000100" cont="0"/>
    </junction>
    <junction id="R2" type="priority" x="-18.35" y="40.43" incLanes="-E3_0 -E3_1 E15_0 E15_1 E15_2" intLanes=":R2_0_0 :R2_0_1 :R2_2_0 :R2_3_0 :R2_3_1 :R2_3_2" shape="-12.03,33.93 -19.49,27.59 -21.43,28.63 -22.41,28.79 -23.39,28.71 -24.39,28.38 -25.39,27.81 -30.83,35.71 -29.37,37.21 -29.03,38.05 -28.96,38.95 -29.15,39.92 -29.60,40.94 -21.20,45.59 -20.15,42.60 -19.12,40.45 -17.96,38.84 -16.50,37.43 -14.57,35.90">
        <request index="0" response="001000" foes="001000" cont="0"/>
        <request index="1" response="011000" foes="011000" cont="0"/>
        <request index="2" response="000000" foes="000000" cont="0"/>
        <request index="3" response="000000" foes="000011" cont="0"/>
        <request index="4" response="000000" foes="000010" cont="0"/>
        <request index="5" response="000000" foes="000000" cont="0"/>
    </junction>
    <junction id="R3" type="priority" x="31.70" y="41.40" incLanes="-E0_0 -E0_1 E14_0 E14_1 E14_2" intLanes=":R3_0_0 :R3_0_1 :R3_2_0 :R3_2_1 :R3_4_0 :R3_4_1 :R3_4_2" shape="35.28,49.86 43.95,45.42 43.68,43.26 43.89,42.31 44.32,41.45 44.98,40.68 45.87,40.00 39.02,29.19 37.10,29.94 36.15,29.96 35.20,29.74 34.25,29.29 33.31,28.60 25.62,34.65 28.52,37.22 30.56,39.29 32.01,41.23 33.10,43.40 34.11,46.15">
        <request index="0" response="0010000" foes="0010000" cont="0"/>
        <request index="1" response="0110000" foes="0110000" cont="0"/>
        <request index="2" response="0000000" foes="0000000" cont="0"/>
        <request index="3" response="0000000" foes="0000000" cont="0"/>
        <request index="4" response="0000000" foes="0000011" cont="0"/>
        <request index="5" response="0000000" foes="0000010" cont="0"/>
        <request index="6" response="0000000" foes="0000000" cont="0"/>
    </junction>
    <junction id="R4" type="priority" x="29.91" y="76.02" incLanes="-E1_0 E13_0 E13_1 E13_2" intLanes=":R4_0_0 :R4_1_0 :R4_2_0 :R4_2_1 :R4_2_2" shape="38.16,86.59 42.12,81.57 40.99,80.15 40.74,79.29 40.71,78.34 40.90,77.30 41.25,76.23 33.10,70.91 32.08,73.27 31.23,75.01 30.36,76.37 29.29,77.55 27.81,78.79 25.74,80.31 32.74,86.97 34.47,85.75 35.36,85.55 36.27,85.62 37.20,85.97">
        <request index="0" response="00100" foes="00100" cont="0"/>
        <request index="1" response="00000" foes="00000" cont="0"/>
        <request index="2" response="00000" foes="00001" cont="0"/>
        <request index="3" response="00000" foes="00000" cont="0"/>
        <request index="4" response="00000" foes="00000" cont="0"/>
    </junction>
    <junction id="R5" type="priority" x="153.65" y="85.60" incLanes="E23_0 E23_1 E18_0" intLanes=":R5_0_0 :R5_1_0 :R5_2_0" shape="154.46,93.90 158.07,88.62 156.00,87.32 154.31,86.36 152.96,85.48 151.90,84.41 151.07,82.88 150.42,80.62 147.67,82.45 148.18,84.49 147.89,85.67 147.24,86.95 146.23,88.34 144.86,89.84 149.38,94.37 150.99,93.28 151.82,93.09 152.68,93.12 153.56,93.40">
        <request index="0" response="000" foes="000" cont="0"/>
        <request index="1" response="000" foes="100" cont="0"/>
        <request index="2" response="010" foes="010" cont="0"/>
    </junction>
    <junction id="R6" type="priority" x="163.33" y="60.05" incLanes="-E19_0 E22_0" intLanes=":R6_0_0 :R6_1_0 :R6_2_0" shape="169.28,61.04 169.66,57.68 167.77,56.54 167.09,55.91 166.60,55.24 166.28,54.53 166.14,53.78 159.75,54.18 159.51,56.18 159.10,56.97 158.49,57.61 157.69,58.11 156.70,58.47 157.56,61.68 159.29,60.61 161.12,59.94 163.03,59.64 165.03,59.72 167.11,60.19">
        <request index="0" response="100" foes="100" cont="0"/>
        <request index="1" response="000" foes="000" cont="0"/>
        <request index="2" response="000" foes="001" cont="0"/>
    </junction>
    <junction id="R7" type="priority" x="178.62" y="70.64" incLanes="-E21_0 E21_0" intLanes=":R7_0_0 :R7_1_0 :R7_2_0" shape="179.19,76.02 185.56,75.34 185.72,73.36 186.10,72.57 186.68,71.91 187.46,71.38 188.44,70.99 186.57,64.87 183.34,65.47 181.94,65.42 180.69,65.14 179.58,64.62 178.61,63.87 175.60,65.41 177.22,67.16 178.19,68.66 178.68,70.09 178.89,71.66 179.00,73.57">
        <request index="0" response="000" foes="000" cont="0"/>
        <request index="1" response="000" foes="000" cont="0"/>
        <request index="2" response="000" foes="000" cont="0"/>
    </junction>

    <junction id=":4_6_0" type="internal" x="107.18" y="133.25" incLanes=":4_1_0 -E17_0" intLanes=":4_3_0 :4_4_0 :4_5_0"/>

    <connection from="-E0" to="E13" fromLane="0" toLane="0" via=":R3_0_0" dir="r" state="m" visibility="9.00"/>
    <connection from="-E0" to="E13" fromLane="1" toLane="1" via=":R3_0_1" dir="r" state="m" visibility="9.00"/>
    <connection from="-E1" to="E16" fromLane="0" toLane="0" via=":R4_0_0" dir="r" state="m" visibility="9.00"/>
    <connection from="-E17" to="-E1" fromLane="0" toLane="0" via=":4_4_0" tl="J3" linkIndex="4" dir="r" state="O"/>
    <connection from="-E17" to="E18" fromLane="0" toLane="0" via=":4_5_0" tl="J3" linkIndex="5" dir="s" state="O"/>
    <connection from="-E180" to="E17" fromLane="0" toLane="0" via=":4_0_0" tl="J3" linkIndex="0" dir="s" state="O"/>
    <connection from="-E180" to="-E1" fromLane="0" toLane="0" via=":4_1_0" tl="J3" linkIndex="1" dir="l" state="o"/>
    <connection from="-E19" to="E21" fromLane="0" toLane="0" via=":R6_0_0" dir="r" state="m" visibility="9.00"/>
    <connection from="-E2" to="E15" fromLane="0" toLane="0" via=":R1_5_0" dir="r" state="m" visibility="9.00"/>
    <connection from="-E21" to="E23" fromLane="0" toLane="0" via=":R7_0_0" dir="r" state="M"/>
    <connection from="-E3" to="E14" fromLane="0" toLane="0" via=":R2_0_0" dir="r" state="m" visibility="9.00"/>
    <connection from="-E3" to="E14" fromLane="1" toLane="1" via=":R2_0_1" dir="r" state="m" visibility="9.00"/>
    <connection from="E10" to="E18" fromLane="0" toLane="0" via=":4_2_0" tl="J3" linkIndex="2" dir="r" state="o"/>
    <connection from="E10" to="E17" fromLane="0" toLane="0" via=":4_3_0" tl="J3" linkIndex="3" dir="l" state="o"/>
    <connection from="E13" to="E10" fromLane="0" toLane="0" via=":R4_1_0" dir="r" state="M"/>
    <connection from="E13" to="E16" fromLane="0" toLane="0" via=":R4_2_0" dir="s" state="M"/>
    <connection from="E13" to="E16" fromLane="1" toLane="1" via=":R4_2_1" dir="s" state="M"/>
    <connection from="E13" to="E16" fromLane="2" toLane="2" via=":R4_2_2" dir="s" state="M"/>
    <connection from="E14" to="E00" fromLane="0" toLane="0" via=":R3_2_0" dir="r" state="M"/>
    <connection from="E14" to="E00" fromLane="0" toLane="1" via=":R3_2_1" dir="r" state="M"/>
    <connection from="E14" to="E13" fromLane="0" toLane="0" via=":R3_4_0" dir="s" state="M"/>
    <connection from="E14" to="E13" fromLane="1" toLane="1" via=":R3_4_1" dir="s" state="M"/>
    <connection from="E14" to="E13" fromLane="2" toLane="2" via=":R3_4_2" dir="s" state="M"/>
    <connection from="E15" to="E30" fromLane="0" toLane="0" via=":R2_2_0" dir="r" state="M"/>
    <connection from="E15" to="E14" fromLane="0" toLane="0" via=":R2_3_0" dir="s" state="M"/>
    <connection from="E15" to="E14" fromLane="1" toLane="1" via=":R2_3_1" dir="s" state="M"/>
    <connection from="E15" to="E14" fromLane="2" toLane="2" via=":R2_3_2" dir="s" state="M"/>
    <connection from="E16" to="E20" fromLane="0" toLane="0" via=":R1_0_0" dir="r" state="M"/>
    <connection from="E16" to="E20" fromLane="0" toLane="1" via=":R1_0_1" dir="r" state="M"/>
    <connection from="E16" to="E15" fromLane="0" toLane="0" via=":R1_2_0" dir="s" state="M"/>
    <connection from="E16" to="E15" fromLane="1" toLane="1" via=":R1_2_1" dir="s" state="M"/>
    <connection from="E16" to="E15" fromLane="2" toLane="2" via=":R1_2_2" dir="s" state="M"/>
    <connection from="E18" to="E22" fromLane="0" toLane="0" via=":R5_2_0" dir="r" state="m" visibility="9.00"/>
    <connection from="E21" to="E210" fromLane="0" toLane="0" via=":R7_1_0" dir="r" state="M"/>
    <connection from="E21" to="E23" fromLane="0" toLane="1" via=":R7_2_0" dir="s" state="M"/>
    <connection from="E22" to="E190" fromLane="0" toLane="0" via=":R6_1_0" dir="r" state="M"/>
    <connection from="E22" to="E21" fromLane="0" toLane="0" via=":R6_2_0" dir="s" state="M"/>
    <connection from="E23" to="-E180" fromLane="0" toLane="0" via=":R5_0_0" dir="r" state="M"/>
    <connection from="E23" to="E22" fromLane="1" toLane="0" via=":R5_1_0" dir="s" state="M"/>

    <connection from=":4_0" to="E17" fromLane="0" toLane="0" dir="s" state="M"/>
    <connection from=":4_1" to="-E1" fromLane="0" toLane="0" via=":4_6_0" dir="l" state="m"/>
    <connection from=":4_6" to="-E1" fromLane="0" toLane="0" dir="l" state="M"/>
    <connection from=":4_2" to="E18" fromLane="0" toLane="0" dir="r" state="M"/>
    <connection from=":4_3" to="E17" fromLane="0" toLane="0" dir="l" state="M"/>
    <connection from=":4_4" to="-E1" fromLane="0" toLane="0" dir="r" state="M"/>
    <connection from=":4_5" to="E18" fromLane="0" toLane="0" dir="s" state="M"/>
    <connection from=":R1_0" to="E20" fromLane="0" toLane="0" dir="r" state="M"/>
    <connection from=":R1_0" to="E20" fromLane="1" toLane="1" dir="r" state="M"/>
    <connection from=":R1_2" to="E15" fromLane="0" toLane="0" dir="s" state="M"/>
    <connection from=":R1_2" to="E15" fromLane="1" toLane="1" dir="s" state="M"/>
    <connection from=":R1_2" to="E15" fromLane="2" toLane="2" dir="s" state="M"/>
    <connection from=":R1_5" to="E15" fromLane="0" toLane="0" dir="r" state="M"/>
    <connection from=":R2_0" to="E14" fromLane="0" toLane="0" dir="r" state="M"/>
    <connection from=":R2_0" to="E14" fromLane="1" toLane="1" dir="r" state="M"/>
    <connection from=":R2_2" to="E30" fromLane="0" toLane="0" dir="r" state="M"/>
    <connection from=":R2_3" to="E14" fromLane="0" toLane="0" dir="s" state="M"/>
    <connection from=":R2_3" to="E14" fromLane="1" toLane="1" dir="s" state="M"/>
    <connection from=":R2_3" to="E14" fromLane="2" toLane="2" dir="s" state="M"/>
    <connection from=":R3_0" to="E13" fromLane="0" toLane="0" dir="r" state="M"/>
    <connection from=":R3_0" to="E13" fromLane="1" toLane="1" dir="r" state="M"/>
    <connection from=":R3_2" to="E00" fromLane="0" toLane="0" dir="r" state="M"/>
    <connection from=":R3_2" to="E00" fromLane="1" toLane="1" dir="r" state="M"/>
    <connection from=":R3_4" to="E13" fromLane="0" toLane="0" dir="s" state="M"/>
    <connection from=":R3_4" to="E13" fromLane="1" toLane="1" dir="s" state="M"/>
    <connection from=":R3_4" to="E13" fromLane="2" toLane="2" dir="s" state="M"/>
    <connection from=":R4_0" to="E16" fromLane="0" toLane="0" dir="r" state="M"/>
    <connection from=":R4_1" to="E10" fromLane="0" toLane="0" dir="r" state="M"/>
    <connection from=":R4_2" to="E16" fromLane="0" toLane="0" dir="s" state="M"/>
    <connection from=":R4_2" to="E16" fromLane="1" toLane="1" dir="s" state="M"/>
    <connection from=":R4_2" to="E16" fromLane="2" toLane="2" dir="s" state="M"/>
    <connection from=":R5_0" to="-E180" fromLane="0" toLane="0" dir="r" state="M"/>
    <connection from=":R5_1" to="E22" fromLane="0" toLane="0" dir="s" state="M"/>
    <connection from=":R5_2" to="E22" fromLane="0" toLane="0" dir="r" state="M"/>
    <connection from=":R6_0" to="E21" fromLane="0" toLane="0" dir="r" state="M"/>
    <connection from=":R6_1" to="E190" fromLane="0" toLane="0" dir="r" state="M"/>
    <connection from=":R6_2" to="E21" fromLane="0" toLane="0" dir="s" state="M"/>
    <connection from=":R7_0" to="E23" fromLane="0" toLane="0" dir="r" state="M"/>
    <connection from=":R7_1" to="E210" fromLane="0" toLane="0" dir="r" state="M"/>
    <connection from=":R7_2" to="E23" fromLane="0" toLane="1" dir="s" state="M"/>

    <roundabout nodes="R1 R2 R3 R4" edges="E13 E14 E15 E16"/>
    <roundabout nodes="R5 R6 R7" edges="E21 E22 E23"/>

</net>
